src/case1354pegase_solved.m
function mpc = case1354pegase_solved
%CASE1354PEGASE_SOLVED

%% MATPOWER Case Format : Version 2
mpc.version = '2';

%%-----  Power Flow Data  -----%%
%% system MVA base
mpc.baseMVA = 100;

%% bus data
%	bus_i	type	Pd	Qd	Gs	Bs	area	Vm	Va	baseKV	zone	Vmax	Vmin	lam_P	lam_Q	mu_Vmax	mu_Vmin
mpc.bus = [
	3	1	151	48.8	0	4.69	0	1.07518546	-8.39138124	220	5	1.1	0.9	1.0232	0.0045	0.0000	0.0000;
	4	1	171.41	23.4	0	2.1	0	1.06218344	-5.59589168	220	5	1.1	0.9	1.0155	0.0030	0.0000	0.0000;
	10	1	134	24.7	0	12.44	0	1.06448174	-17.4552996	220	5	1.1	0.9	1.0435	-0.0079	0.0000	0.0000;
	21	1	161.2	39.3	0	30.71	0	1.05995645	-16.0756765	220	5	1.1	0.9	1.0400	-0.0020	0.0000	0.0000;
	22	1	0	-0	0	0.85	0	1.07821161	-11.101191	220	5	1.1	0.9	1.0206	0.0037	0.0000	0.0000;
	26	1	167.3	54.8	0	110.54	0	1.07076895	-1.22391475	380	5	1.1	0.9	1.0015	0.0002	0.0000	0.0000;
	29	1	152.9	49.4	0	27.65	0	1.04995865	-3.00639614	380	5	1.1	0.9	1.0076	0.0007	0.0000	0.0000;
	44	1	-0	0	0	7.27	0	1.07134507	-15.4794183	220	5	1.1	0.9	1.0327	-0.0082	0.0000	0.0000;
	53	1	48.65	16.1	0	7.14	0	1.09042644	-2.01095588	220	5	1.1	0.9	1.0011	0.0001	0.0000	0.0000;
	58	1	0	0	0	2.31	0	1.04515849	-1.17541266	380	5	1.1	0.9	1.0000	-0.0003	0.0000	0.0000;
	59	1	119.2	20.7	0	3.31	0	1.08401309	-14.6407629	220	5	1.1	0.9	1.0375	-0.0046	0.0000	0.0000;
	90	1	363.25	115.39	0	3.95	0	1.08209711	-11.0271673	220	5	1.1	0.9	1.0266	0.0027	0.0000	0.0000;
	96	1	-8.4	28.66	0	3.49	0	1.09578551	-1.98769375	220	5	1.1	0.9	1.0058	0.0013	0.0000	0.0000;
	113	1	-0	-0	0	6.532711	0	1.06618739	-4.08534022	380	5	1.1	0.9	1.0098	0.0011	0.0000	0.0000;
	115	1	0	-0	0	4.21	0	1.07004352	-12.6057358	220	5	1.1	0.9	1.0254	0.0020	0.0000	0.0000;
	118	1	704.53	-35.33	0	13.102834	0	1.07422056	-4.12219735	380	5	1.1	0.9	1.0070	-0.0002	0.0000	0.0000;
	124	2	0	0	0	0	0	1.07560978	2.13987787	220	5	1.1	0.9	0.9975	-0.0000	0.0000	0.0000;
	128	1	23.73	12.7	0	0.52	0	1.05041005	-12.6894729	220	5	1.1	0.9	1.0355	0.0068	0.0000	0.0000;
	145	1	38.34	5.6	0	7.64	0	1.0909938	-4.22164651	220	5	1.1	0.9	1.0025	-0.0000	0.0000	0.0000;
	148	1	32.34	12	0	6.1	0	1.07304733	-4.39485076	220	5	1.1	0.9	1.0072	0.0012	0.0000	0.0000;
	150	2	0	0	0	0	0	1.08400625	-3.1481165	220	5	1.1	0.9	1.0000	-0.0000	0.0000	0.0000;
	163	1	147.76	32.73	0	8.34	0	1.07922115	-8.55731848	220	5	1.1	0.9	1.0163	0.0044	0.0000	0.0000;
	171	1	100.8	13.2	0	5.24	0	1.08936428	-9.62357306	220	5	1.1	0.9	1.0160	0.0012	0.0000	0.0000;
	174	1	370.5	-17	0	9.91	0	1.09115766	-16.3583936	220	5	1.1	0.9	1.0420	-0.0222	0.0000	0.0000;
	184	1	-0	-0	0	2.42	0	1.0642808	-10.1531187	220	5	1.1	0.9	1.0210	0.0031	0.0000	0.0000;
	188	1	36.84	13.9	0	3.3	0	1.0573004	-9.72303953	220	5	1.1	0.9	1.0220	0.0050	0.0000	0.0000;
	195	1	73.14	21.55	0	8.52	0	1.08525234	-3.29258087	220	5	1.1	0.9	1.0014	0.0001	0.0000	0.0000;
	196	1	0	-0	0	12.48	0	1.09931864	-20.4554327	220	5	1.1	0.9	1.0276	-0.0893	0.0000	0.0000;
	198	1	39.74	11.8	0	1.44	0	1.04628611	-13.1031035	220	5	1.1	0.9	1.0383	0.0082	0.0000	0.0000;
	207	1	321.98	84.4	0	1.34	0	1.04886896	-11.8262141	220	5	1.1	0.9	1.0327	0.0063	0.0000	0.0000;
	216	1	155.6	54.7	0	2.21	0	1.08763113	-15.6666253	220	5	1.1	0.9	1.0410	0.0004	0.0000	0.0000;
	217	1	105.2	0.1	0	7.36	0	1.04421461	-6.21494747	220	5	1.1	0.9	1.0151	0.0033	0.0000	0.0000;
	218	1	69.83	15.12	0	2.23	0	1.08943467	-7.9229013	220	5	1.1	0.9	1.0145	0.0023	0.0000	0.0000;
	221	2	0	0	0	0	0	1.04083142	-1.20884817	380	5	1.1	0.9	1.0001	-0.0000	0.0000	0.0000;
	225	1	0	0	0	1.15	0	1.06717421	-12.9833968	220	5	1.1	0.9	1.0278	0.0025	0.0000	0.0000;
	280	1	119.6	29.6	0	5.34	0	1.08079257	-5.52537091	220	5	1.1	0.9	1.0066	0.0004	0.0000	0.0000;
	283	1	27.33	11.9	0	1.17	0	1.05824138	-10.6194791	220	5	1.1	0.9	1.0253	0.0044	0.0000	0.0000;
	292	1	13.82	1.4	0	0.7	0	1.09663179	-7.73965252	220	5	1.1	0.9	1.0140	0.0015	0.0000	0.0000;
	305	1	103	12	0	0.63	0	1.0832916	-19.0579336	220	5	1.1	0.9	1.0489	0.0014	0.0000	0.0000;
	306	1	-0	0	0	4.76	0	1.04673877	-14.1500335	220	5	1.1	0.9	1.0286	-0.0024	0.0000	0.0000;
	314	1	163.1	46.3	0	10.6	0	1.03304683	-14.2270944	220	5	1.1	0.9	1.0400	0.0136	0.0000	0.0000;
	333	1	524.5	43	0	6.85	0	1.03465432	-26.9441755	220	5	1.1	0.9	1.1072	0.0135	0.0000	0.0000;
	338	2	0	0	0	0	0	1.09917702	-3.06168588	220	5	1.1	0.9	1.0000	-0.0000	0.0000	0.0000;
	346	1	197.5	48.3	0	0.71	0	1.08472718	-13.4590666	220	5	1.1	0.9	1.0349	0.0017	0.0000	0.0000;
	350	1	110.4	26.2	0	5.62	0	1.06870823	-16.543244	220	5	1.1	0.9	1.0404	-0.0079	0.0000	0.0000;
	352	2	0	0	0	0	0	1.02170566	1.79362972	380	5	1.1	0.9	1.0000	-0.0000	0.0000	0.0000;
	367	1	65.17	-51.5	0	4.85	0	1.09517985	-17.8470076	220	5	1.1	0.9	1.0264	-0.0668	0.0000	0.0000;
	401	1	56.5	36.29	0	3.08	0	1.09462531	-5.27488115	220	5	1.1	0.9	1.0006	0.0002	0.0000	0.0000;
	408	1	129.1	7.4	0	0.04	0	1.0673034	-10.0958791	220	5	1.1	0.9	1.0217	0.0020	0.0000	0.0000;
	410	1	170.89	50.38	0	6.44	0	1.0843667	-14.4437318	220	5	1.1	0.9	1.0388	0.0006	0.0000	0.0000;
	413	2	0	0	0	0	0	1.07868464	1.36999452	220	5	1.1	0.9	1.0000	-0.0000	0.0000	0.0000;
	416	1	70.68	13.5	0	6.96	0	1.09096325	-5.62793808	220	5	1.1	0.9	1.0046	0.0011	0.0000	0.0000;
	426	1	123.1	6.5	0	3.25	0	1.08070063	-9.54727189	220	5	1.1	0.9	1.0305	0.0009	0.0000	0.0000;
	432	1	-0	-0	0	68.517663	0	1.06357785	-0.0561538209	380	5	1.1	0.9	0.9988	-0.0001	0.0000	0.0000;
	444	1	0	-0	0	2.45	0	1.05830705	-10.6550311	220	5	1.1	0.9	1.0248	0.0044	0.0000	0.0000;
	449	1	0	0	0	29.42	0	1.02444374	-2.58882015	380	5	1.1	0.9	1.0045	-0.0001	0.0000	0.0000;
	453	2	0	0	0	0	0	1.06627496	-1.09015466	380	5	1.1	0.9	1.0000	-0.0000	0.0000	0.0000;
	455	1	274.32	5.66	0	13.24	0	1.06808594	-17.0515042	220	5	1.1	0.9	1.0517	0.0023	0.0000	0.0000;
	490	1	20.52	4	0	2.77	0	1.05706692	-16.9031532	220	5	1.1	0.9	1.0361	-0.0004	0.0000	0.0000;
	500	1	144.4	35.5	0	7.66	0	1.08105423	-6.4631899	220	5	1.1	0.9	1.0096	0.0019	0.0000	0.0000;
	502	1	-0	0	0	1.96	0	1.08194226	-2.29074772	220	5	1.1	0.9	1.0003	0.0000	0.0000	0.0000;
	506	1	-0	0	0	0.4	0	1.07706428	-0.774498141	380	5	1.1	0.9	1.0002	0.0000	0.0000	0.0000;
	513	1	57.46	17.1	0	1.61	0	1.07702445	-3.13972925	220	5	1.1	0.9	1.0043	0.0009	0.0000	0.0000;
	516	2	0	0	0	0	0	1.08445586	-17.1168383	220	5	1.1	0.9	1.0000	0.0000	0.0000	0.0000;
	520	1	118.5	20.4	0	2.57	0	1.09558402	-8.79611527	220	5	1.1	0.9	1.0145	0.0001	0.0000	0.0000;
	549	1	0	-0	0	5.15	0	1.09996307	-3.8885841	220	5	1.1	0.9	1.0038	-0.0088	0.0000	0.0000;
	554	1	0	-0	0	1.97	0	1.06793657	-13.2287223	220	5	1.1	0.9	1.0310	0.0052	0.0000	0.0000;
	556	1	16.52	9	0	1.17	0	1.05777221	-16.7007989	220	5	1.1	0.9	1.0349	-0.0004	0.0000	0.0000;
	561	1	0	-0	0	0.32	0	1.09019102	-2.75570112	220	5	1.1	0.9	1.0050	0.0001	0.0000	0.0000;
	564	2	0	0	0	0	0	1.09409254	-28.8748857	220	5	1.1	0.9	1.0922	-0.0003	0.0000	0.0000;
	575	1	0	-0	0	0.67	0	1.06702523	-10.1650475	220	5	1.1	0.9	1.0219	0.0025	0.0000	0.0000;
	583	2	0	0	0	0	0	1.09128782	-4.51540749	220	5	1.1	0.9	1.0000	0.0003	0.0000	0.0000;
	594	1	67.57	17	0	5.75	0	1.06043297	-0.94700959	220	5	1.1	0.9	1.0130	0.0026	0.0000	0.0000;
	601	1	140.6	42.6	0	5.71	0	1.09157577	-6.69497682	220	5	1.1	0.9	1.0097	0.0019	0.0000	0.0000;
	604	1	33.24	4.4	0	24.54	0	1.02466917	-8.07412579	380	5	1.1	0.9	1.0246	-0.0001	0.0000	0.0000;
	608	1	150.9	10.4	0	4.77	0	1.09616188	-15.410375	220	5	1.1	0.9	1.0381	-0.0011	0.0000	0.0000;
	609	1	-0	-0	0	5.67	0	1.06924187	-8.18068363	220	5	1.1	0.9	1.0188	0.0053	0.0000	0.0000;
	615	2	0	0	0	0	0	1.09555069	-4.08456436	220	5	1.1	0.9	0.9939	-0.0000	0.0000	0.0000;
	616	2	0	0	0	0	0	1.1	-5.09880534	220	5	1.1	0.9	1.0005	-0.0000	14.4996	0.0000;
	619	1	72.88	14.4	0	2.96	0	1.09471658	-16.7168265	220	5	1.1	0.9	1.0389	0.0025	0.0000	0.0000;
	639	2	0	0	0	0	0	1.0962308	-19.6131063	220	5	1.1	0.9	1.0652	0.0000	0.0000	0.0000;
	641	1	45.32	18.5	0	0.74	0	1.09628234	-1.33246702	220	5	1.1	0.9	1.0049	0.0007	0.0000	0.0000;
	658	1	258.4	66.7	0	5.87	0	1.05675526	-7.65913416	220	5	1.1	0.9	1.0139	0.0073	0.0000	0.0000;
	661	1	-0	-0	0	0.6	0	1.03505875	-1.61879655	380	5	1.1	0.9	1.0023	0.0000	0.0000	0.0000;
	666	1	-5.61	-2.79	0	150.93	0	1.06024318	-3.20910998	380	5	1.1	0.9	1.0032	-0.0000	0.0000	0.0000;
	678	1	232.1	89.8	0	0.09	0	1.08730859	-2.49513207	220	5	1.1	0.9	1.0087	0.0033	0.0000	0.0000;
	682	2	0	0	0	0	0	1.08649795	-3.11646557	220	5	1.1	0.9	1.0000	-0.0005	0.0000	0.0000;
	687	1	-0	0	0	5.6	0	1.07195155	-4.89703555	220	5	1.1	0.9	1.0031	0.0006	0.0000	0.0000;
	707	1	83.99	21.2	0	5.36	0	1.08327132	-8.72406671	220	5	1.1	0.9	1.0139	0.0033	0.0000	0.0000;
	718	1	135.11	41	0	5.31	0	1.08560443	-8.83488036	220	5	1.1	0.9	1.0165	0.0022	0.0000	0.0000;
	720	1	-0	-0	0	23.554121	0	1.02680194	-17.5525197	380	5	1.1	0.9	1.0619	0.0005	0.0000	0.0000;
	726	1	400.3	189.9	0	0.53	0	1.06273323	-5.73837542	220	5	1.1	0.9	1.0056	0.0018	0.0000	0.0000;
	742	1	0	-0	0	2.83	0	1.07212355	-4.89854376	220	5	1.1	0.9	1.0031	0.0005	0.0000	0.0000;
	747	1	69.58	16	0	3.03	0	1.09843157	-20.5134263	220	5	1.1	0.9	1.0283	-0.0891	0.0000	0.0000;
	749	2	0	0	0	0	0	1.09240985	-9.28855733	220	5	1.1	0.9	1.0157	-0.0000	0.0000	0.0000;
	750	1	-0	-0	0	18.63	0	1.08934521	-15.5337174	220	5	1.1	0.9	1.0403	-0.0000	0.0000	0.0000;
	757	2	0	0	0	0	0	1.05477137	-5.35232276	380	5	1.1	0.9	1.0135	0.0008	0.0000	0.0000;
	766	1	-0	0	0	7.85	0	1.08970942	-12.8140439	220	5	1.1	0.9	1.0381	-0.0007	0.0000	0.0000;
	769	1	152.57	40	0	6.12	0	1.04007973	-9.08631133	220	5	1.1	0.9	1.0274	0.0068	0.0000	0.0000;
	772	1	343.9	141.9	0	5.55	0	1.07510747	-7.51201162	220	5	1.1	0.9	1.0149	0.0037	0.0000	0.0000;
	776	2	0	0	0	0	0	1.09014492	-5.37448515	220	5	1.1	0.9	1.0037	0.0000	0.0000	0.0000;
	778	2	0	0	0	0	0	1.09950236	-3.05686634	220	5	1.1	0.9	1.0000	-0.0000	0.0000	0.0000;
	789	1	-0	-0	0	6.63	0	1.09187622	-5.80023233	220	5	1.1	0.9	1.0042	0.0009	0.0000	0.0000;
	795	2	0	0	0	0	0	1.1	-0.850236191	220	5	1.1	0.9	1.0001	-0.0000	2.2410	0.0000;
	800	1	50.56	18	0	0.11	0	1.05782468	-10.6519726	220	5	1.1	0.9	1.0257	0.0045	0.0000	0.0000;
	803	2	0	0	0	0	0	1.1	-6.38251162	220	5	1.1	0.9	1.0000	-0.0000	1.7459	0.0000;
	804	1	-0	-0	0	7.26	0	1.1	-4.16446768	220	5	1.1	0.9	1.0015	-0.0017	24.0665	0.0000;
	805	1	124.5	29.6	0	15.4	0	1.098806	-6.53763011	220	5	1.1	0.9	1.0077	0.0011	0.0000	0.0000;
	809	1	0	-0	0	58.088687	0	1.03617298	-1.50901475	380	5	1.1	0.9	1.0013	0.0002	0.0000	0.0000;
	819	1	0	-0	0	0.22	0	1.08797371	-2.80797906	220	5	1.1	0.9	0.9991	-0.0001	0.0000	0.0000;
	823	2	0	0	0	0	0	1.0218156	0.595281973	380	5	1.1	0.9	1.0000	-0.0000	0.0000	0.0000;
	839	1	-0	-0	0	8.17514	0	1.03435296	-2.21483512	380	5	1.1	0.9	1.0035	0.0004	0.0000	0.0000;
	851	2	0	0	0	0	0	1.09984059	-1.48588234	220	5	1.1	0.9	1.0007	0.0001	0.0000	0.0000;
	858	2	0	0	0	0	0	1.03682874	-0.956160146	380	5	1.1	0.9	1.0000	-0.0000	0.0000	0.0000;
	870	1	110	3.4	0	11.95	0	1.08901869	-15.6776597	220	5	1.1	0.9	1.0411	-0.0000	0.0000	0.0000;
	871	1	108.89	-21.76	0	3.72	0	1.08806673	-3.43423436	220	5	1.1	0.9	1.0064	0.0001	0.0000	0.0000;
	883	1	192.5	78.3	0	6.65	0	1.06507653	-6.59306965	220	5	1.1	0.9	1.0180	0.0061	0.0000	0.0000;
	891	2	0	0	0	0	0	1.08559148	-4.09192534	380	5	1.1	0.9	1.0111	0.0000	0.0000	0.0000;
	892	1	-0	-0	0	9.1	0	1.07968262	-18.6148744	220	5	1.1	0.9	1.0539	0.0084	0.0000	0.0000;
	900	1	0	0	0	0.15	0	1.07940922	-6.29798012	220	5	1.1	0.9	1.0199	0.0012	0.0000	0.0000;
	903	1	82.69	20.1	0	1.36	0	1.09839553	-20.5373767	220	5	1.1	0.9	1.0282	-0.0891	0.0000	0.0000;
	905	1	631.71	-54.16	0	7.534129	0	1.07010721	-5.18461819	380	5	1.1	0.9	1.0064	-0.0002	0.0000	0.0000;
	907	1	-0	-0	0	0.05	0	1.09233964	-3.68795391	220	5	1.1	0.9	1.0001	-0.0000	0.0000	0.0000;
	908	1	125.9	-0.5	0	0.21	0	1.09255772	-1.50921628	220	5	1.1	0.9	0.9998	-0.0000	0.0000	0.0000;
	920	1	34.44	8.5	0	1.11	0	1.08935429	-12.9722365	220	5	1.1	0.9	1.0307	0.0006	0.0000	0.0000;
	923	1	62.07	14.7	0	4.84	0	1.056326	-16.9878889	220	5	1.1	0.9	1.0374	-0.0002	0.0000	0.0000;
	933	1	-0	0	0	22.75	0	1.07663136	-8.91438123	220	5	1.1	0.9	1.0247	0.0041	0.0000	0.0000;
	935	1	-0	0	0	9.46	0	1.09673213	-15.9991539	220	5	1.1	0.9	1.0337	0.0025	0.0000	0.0000;
	953	1	108.7	-12.15	0	37.11	0	1.05713697	-4.70263439	380	5	1.1	0.9	1.0133	0.0007	0.0000	0.0000;
	954	1	66.27	13.6	0	0.67	0	1.09421636	-11.9131843	220	5	1.1	0.9	1.0306	0.0016	0.0000	0.0000;
	960	1	-0	-0	0	108.728602	0	1.07706294	-0.774493558	380	5	1.1	0.9	1.0002	0.0000	0.0000	0.0000;
	964	1	88.5	16.5	0	146.44	0	1.05845047	-4.30322714	380	5	1.1	0.9	1.0104	0.0010	0.0000	0.0000;
	972	2	0	0	0	0	0	1.06550324	0.991576127	380	5	1.3	0.7	0.9941	-0.0000	0.0000	0.0000;
	980	1	14.71	4.6	0	7.88	0	1.09508546	-16.6122219	220	5	1.1	0.9	1.0378	0.0026	0.0000	0.0000;
	1001	2	0	0	0	0	0	1.0836908	-17.2804649	220	5	1.1	0.9	1.0455	0.0070	0.0000	0.0000;
	1002	2	0	0	0	0	0	1.08818552	-12.2972677	220	5	1.1	0.9	1.0285	0.0004	0.0000	0.0000;
	1005	1	0	0	0	0.81	0	1.09560409	-5.03662816	220	5	1.1	0.9	0.9988	-0.0000	0.0000	0.0000;
	1015	1	44.55	0	0	4.78	0	1.09852284	-5.08855107	220	5	1.1	0.9	1.0020	-0.0002	0.0000	0.0000;
	1026	1	201.4	53	0	9.67	0	1.07132481	-11.8946968	220	5	1.1	0.9	1.0331	0.0053	0.0000	0.0000;
	1027	1	-5.91	-2.33	0	30.393595	0	1.01160383	-11.8817973	380	5	1.1	0.9	1.0326	-0.0121	0.0000	0.0000;
	1033	1	26.33	5.3	0	4.31	0	1.08917221	-15.6046319	220	5	1.1	0.9	1.0412	-0.0002	0.0000	0.0000;
	1035	1	382.5	57.9	0	8.16	0	1.08390848	-18.9490803	220	5	1.1	0.9	1.0481	0.0013	0.0000	0.0000;
	1039	1	34.64	-0	0	0.91	0	1.08562115	-6.43086682	220	5	1.1	0.9	1.0088	0.0012	0.0000	0.0000;
	1040	1	31.94	8.8	0	3.79	0	1.0910724	-4.16906367	220	5	1.1	0.9	1.0021	0.0000	0.0000	0.0000;
	1043	2	0	0	0	0	0	1.07051519	-1.00435285	380	5	1.1	0.9	0.9999	-0.0000	0.0000	0.0000;
	1051	1	-0	0	0	3.79	0	1.09613182	-5.0415429	220	5	1.1	0.9	0.9991	-0.0000	0.0000	0.0000;
	1077	1	-0	0	0	0.1	0	1.05824297	-10.6195003	220	5	1.1	0.9	1.0253	0.0044	0.0000	0.0000;
	1078	1	-0	-0	0	4.74	0	1.09869833	-4.78765103	220	5	1.1	0.9	1.0000	-0.0000	0.0000	0.0000;
	1081	1	277.86	58.95	0	182.880644	0	1.08090597	-3.08929852	380	5	1.1	0.9	1.0060	-0.0014	0.0000	0.0000;
	1083	2	0	0	0	0	0	1.1	-4.92018082	220	5	1.1	0.9	1.0000	-0.0000	1.8734	0.0000;
	1090	1	56.06	18.7	0	4.24	0	1.02729524	-16.9266644	220	5	1.1	0.9	1.0400	0.0009	0.0000	0.0000;
	1093	2	0	0	0	0	0	1.07327719	-0.809009555	380	5	1.1	0.9	1.0001	-0.0000	0.0000	0.0000;
	1096	1	0	-0	0	0.16	0	1.08780609	-2.81876193	220	5	1.1	0.9	0.9992	-0.0000	0.0000	0.0000;
	1100	2	0	0	0	0	0	1.08915514	-3.32283503	220	5	1.1	0.9	1.0000	-0.0000	0.0000	0.0000;
	1101	1	-0	-0	0	2.05	0	1.08202207	-7.23955134	220	5	1.1	0.9	1.0133	0.0026	0.0000	0.0000;
	1102	2	0	0	0	0	0	1.07865307	1.36431238	220	5	1.1	0.9	1.0001	0.0000	0.0000	0.0000;
	1105	1	29.83	7.3	0	6.49	0	1.09925552	-20.4612791	220	5	1.1	0.9	1.0277	-0.0893	0.0000	0.0000;
	1111	1	0	0	0	1.1	0	1.06057647	-0.948920147	220	5	1.1	0.9	1.0130	0.0025	0.0000	0.0000;
	1129	1	190.47	55.03	0	6.7	0	1.02065154	-17.7390257	220	5	1.1	0.9	1.0452	0.0024	0.0000	0.0000;
	1136	1	16.22	2	0	0.71	0	1.07795017	-11.1524936	220	5	1.1	0.9	1.0209	0.0038	0.0000	0.0000;
	1137	1	-0	-0	0	0.05	0	1.09627162	-15.9608492	220	5	1.1	0.9	1.0345	0.0026	0.0000	0.0000;
	1146	1	32.84	-0	0	1.41	0	1.06151972	-7.21382635	220	5	1.1	0.9	1.0173	0.0057	0.0000	0.0000;
	1151	1	-0	-0	0	18.82	0	1.08770827	-12.8256636	220	5	1.1	0.9	1.0306	0.0005	0.0000	0.0000;
	1153	1	12.41	3.9	0	2.23	0	1.05199935	-5.00619656	220	5	1.1	0.9	1.0044	0.0037	0.0000	0.0000;
	1156	1	65.67	24	0	9.95	0	1.05981849	-16.4848136	220	5	1.1	0.9	1.0344	-0.0010	0.0000	0.0000;
	1159	1	112.4	13	0	3.99	0	1.06693642	-20.3219418	220	5	1.1	0.9	1.0660	0.0101	0.0000	0.0000;
	1172	1	-0	-0	0	2.3	0	1.09870463	-19.7244788	220	5	1.1	0.9	1.0267	-0.0843	0.0000	0.0000;
	1179	1	86.6	23.4	0	0.39	0	1.04235085	-6.41334204	220	5	1.1	0.9	1.0167	0.0037	0.0000	0.0000;
	1183	1	199.4	-19.9	0	6.68	0	1.08638594	-17.8143761	220	5	1.1	0.9	1.0497	0.0058	0.0000	0.0000;
	1187	1	67.57	21.2	0	5.71	0	1.07053179	-6.43905662	220	5	1.1	0.9	1.0105	0.0037	0.0000	0.0000;
	1188	1	30.93	6.6	0	9.09	0	1.09582034	-5.84427194	220	5	1.1	0.9	1.0038	-0.0012	0.0000	0.0000;
	1194	1	129.6	13.3	0	13.98	0	1.07257719	-4.15047248	380	5	1.1	0.9	1.0094	0.0002	0.0000	0.0000;
	1198	1	0	0	0	30.637696	0	1.04301716	-3.26242667	380	5	1.1	0.9	1.0097	0.0014	0.0000	0.0000;
	1201	1	114.1	23.5	0	1.08	0	1.09664373	-12.4516417	220	5	1.1	0.9	1.0254	-0.0085	0.0000	0.0000;
	1216	1	0	0	0	4.93	0	1.05454772	-8.86404735	220	5	1.1	0.9	1.0231	0.0036	0.0000	0.0000;
	1233	1	0	-0	0	1.72	0	1.05973334	-16.5078294	220	5	1.1	0.9	1.0346	-0.0010	0.0000	0.0000;
	1234	1	71.78	17.9	0	1.96	0	1.06409829	-9.60927234	220	5	1.1	0.9	1.0260	0.0033	0.0000	0.0000;
	1237	2	0	0	0	0	0	1.07668069	0.969699255	380	5	1.3	0.7	1.0000	-0.0000	0.0000	0.0000;
	1248	1	0	0	0	1.17	0	1.07938394	-8.55886054	220	5	1.1	0.9	1.0163	0.0043	0.0000	0.0000;
	1249	1	348.93	26.47	0	9.36	0	1.06857188	-5.31844281	380	5	1.1	0.9	1.0125	0.0000	0.0000	0.0000;
	1251	2	0	0	0	0	0	1.0730794	-0.868002433	380	5	1.1	0.9	1.0000	-0.0000	0.0000	0.0000;
	1262	1	-0	0	0	10.73	0	1.05983625	-16.0804663	220	5	1.1	0.9	1.0321	-0.0007	0.0000	0.0000;
	1265	1	173	-21.3	0	5.93	0	1.08792511	-32.9030696	220	5	1.1	0.9	1.1248	0.0025	0.0000	0.0000;
	1275	1	52.46	2.9	0	0.35	0	1.07515001	-12.2815387	220	5	1.1	0.9	1.0388	0.0019	0.0000	0.0000;
	1295	2	0	0	0	0	0	1.09927179	-3.08696772	220	5	1.1	0.9	1.0002	0.0000	0.0000	0.0000;
	1301	1	479	99.2	0	10.68	0	1.07361073	-14.9304361	220	5	1.1	0.9	1.0415	0.0019	0.0000	0.0000;
	1305	1	-0	-0	0	4.34	0	1.09146751	-8.41932612	220	5	1.1	0.9	1.0137	0.0001	0.0000	0.0000;
	1311	1	37.94	15.2	0	35.31	0	1.05127772	-9.35461047	380	5	1.1	0.9	1.0281	0.0003	0.0000	0.0000;
	1326	1	0	0	0	0.98	0	1.07983375	-18.615869	220	5	1.1	0.9	1.0539	0.0084	0.0000	0.0000;
	1334	1	0	0	0	0.59	0	1.06611667	-9.36488137	220	5	1.1	0.9	1.0239	0.0030	0.0000	0.0000;
	1341	2	0	0	0	0	0	1.08138367	-7.23540151	220	5	1.1	0.9	1.0133	0.0027	0.0000	0.0000;
	1343	1	-0	-0	0	58.3	0	1.04793758	-3.69643032	380	5	1.1	0.9	1.0103	0.0010	0.0000	0.0000;
	1354	2	0	0	0	0	0	1.0817337	-2.46775473	220	5	1.1	0.9	1.0007	0.0000	0.0000	0.0000;
	1355	1	-3.29	-1.32	0	190.704588	0	1.07901413	-2.91552543	380	5	1.1	0.9	1.0052	-0.0008	0.0000	0.0000;
	1364	1	40.85	14.5	0	0.59	0	1.07511072	-8.96803343	220	5	1.1	0.9	1.0196	0.0050	0.0000	0.0000;
	1380	1	145.2	21.4	0	1.09	0	1.08131183	-14.8300146	220	5	1.1	0.9	1.0417	-0.0055	0.0000	0.0000;
	1394	1	30.93	7.6	0	4.69	0	1.09914783	-20.4499593	220	5	1.1	0.9	1.0276	-0.0892	0.0000	0.0000;
	1397	1	0	-0	0	2.14	0	1.09687754	-5.02287155	220	5	1.1	0.9	0.9986	-0.0003	0.0000	0.0000;
	1398	1	196.7	44.2	0	0.1	0	1.06901596	-10.5927711	220	5	1.1	0.9	1.0332	0.0059	0.0000	0.0000;
	1401	1	11.91	2.9	0	5.27	0	1.07839654	-8.83454423	220	5	1.1	0.9	1.0187	0.0035	0.0000	0.0000;
...
];

%% generator data
%	bus	Pg	Qg	Qmax	Qmin	Vg	mBase	status	Pmax	Pmin	Pc1	Pc2	Qc1min	Qc1max	Qc2min	Qc2max	ramp_agc	ramp_10	ramp_30	ramp_q	apf	mu_Pmax	mu_Pmin	mu_Qmax	mu_Qmin
mpc.gen = [
	124	333.33	-139.308971	440.32	-172.59	1.07560978	100	1	1000	333.33	0	0	0	0	0	0	0	0	0	0	0	0.0000	0.0025	0.0000	0.0000;
	150	0.220758524	-5.06286234	77.09	-22.54	1.08400625	100	1	160	0	0	0	0	0	0	0	0	0	0	0	0	0.0000	0.0000	0.0000	0.0000;
	221	99.9999985	-65.2971409	183.92	-65.3	1.04083142	100	1	100	-207.18	0	0	0	0	0	0	0	0	0	0	0	0.0001	0.0000	0.0000	0.0000;
	338	4.01385025	-2.52654453	55.54	-19.16	1.09917702	100	1	120	0	0	0	0	0	0	0	0	0	0	0	0	0.0000	0.0000	0.0000	0.0000;
	352	870.560576	22.5489626	926.35	-297.68	1.02170566	100	1	2000	666.67	0	0	0	0	0	0	0	0	0	0	0	0.0000	0.0000	0.0000	0.0000;
	413	38.1899456	1.20992939	124.12	-49.84	1.07868464	100	1	280	0	0	0	0	0	0	0	0	0	0	0	0	0.0000	0.0000	0.0000	0.0000;
	453	291.296716	-28.2111569	257.23	-74.4	1.06627496	100	1	540	0	0	0	0	0	0	0	0	0	0	0	0	0.0000	0.0000	0.0000	0.0000;
	516	522.917666	79.9882171	261.79	-106.67	1.08445586	100	1	600	200	0	0	0	0	0	0	0	0	0	0	0	0.0000	0.0000	0.0000	0.0000;
	564	100	-19.35	18.47	-19.35	1.09409254	100	1	100	-68.89	0	0	0	0	0	0	0	0	0	0	0	0.0922	0.0000	0.0000	0.0003;
	583	79.0194268	17.88	17.88	-7.03	1.09128782	100	1	100	-360	0	0	0	0	0	0	0	0	0	0	0	0.0000	0.0000	0.0003	0.0000;
	615	0	-3.68018182	17.09	-7.79	1.09555069	100	1	40	0	0	0	0	0	0	0	0	0	0	0	0	0.0000	0.0061	0.0000	0.0000;
	616	480	49.8022087	217.9	-81.16	1.1	100	1	480	160	0	0	0	0	0	0	0	0	0	0	0	0.0005	0.0000	0.0000	0.0000;
	639	100	95.0037097	135.52	-38.9	1.0962308	100	1	100	-61.6	0	0	0	0	0	0	0	0	0	0	0	0.0652	0.0000	0.0000	0.0000;
	682	44.0790132	-11.06	38.77	-11.06	1.08649795	100	1	80	0	0	0	0	0	0	0	0	0	0	0	0	0.0000	0.0000	0.0000	0.0005;
	749	240	-25.0759404	105.69	-43.84	1.09240985	100	1	240	0	0	0	0	0	0	0	0	0	0	0	0	0.0157	0.0000	0.0000	0.0000;
	757	120	51.3	51.3	-23.41	1.05477137	100	1	120	0	0	0	0	0	0	0	0	0	0	0	0	0.0135	0.0000	0.0008	0.0000;
	776	100	11.2264997	18.16	-6.73	1.09014492	100	1	100	-148.53	0	0	0	0	0	0	0	0	0	0	0	0.0037	0.0000	0.0000	0.0000;
	778	0.00407471679	-2.63962872	12.37	-9.36	1.09950236	100	1	33.58	0	0	0	0	0	0	0	0	0	0	0	0	0.0000	0.0000	0.0000	0.0000;
	795	79.9999993	0.0514767276	36.75	-13.04	1.1	100	1	80	0	0	0	0	0	0	0	0	0	0	0	0	0.0001	0.0000	0.0000	0.0000;
	803	72.5018694	-3.89970228	74.03	-25.54	1.1	100	1	100	-118.93	0	0	0	0	0	0	0	0	0	0	0	0.0000	0.0000	0.0000	0.0000;
	823	881.210219	12.9363506	926.68	-298.31	1.0218156	100	1	2000	666.67	0	0	0	0	0	0	0	0	0	0	0	0.0000	0.0000	0.0000	0.0000;
	851	200	96.6399984	96.64	-27.81	1.09984059	100	1	200	0	0	0	0	0	0	0	0	0	0	0	0	0.0007	0.0000	0.0001	0.0000;
	858	475.973551	77.6537935	440.67	-172.15	1.03682874	100	1	1000	333.33	0	0	0	0	0	0	0	0	0	0	0	0.0000	0.0000	0.0000	0.0000;
	891	2400	635.378132	1097.41	-373.91	1.08559148	100	1	2400	800	0	0	0	0	0	0	0	0	0	0	0	0.0111	0.0000	0.0000	0.0000;
	972	666.67	135.044577	934.73	-291.52	1.06550324	100	1	2000	666.67	0	0	0	0	0	0	0	0	0	0	0	0.0000	0.0059	0.0000	0.0000;
	1001	120	55.02	55.02	-19.81	1.0836908	100	1	120	0	0	0	0	0	0	0	0	0	0	0	0	0.0455	0.0000	0.0070	0.0000;
	1002	200	89.55	89.55	-35.15	1.08818552	100	1	200	0	0	0	0	0	0	0	0	0	0	0	0	0.0285	0.0000	0.0004	0.0000;
	1043	300.000001	0.157072706	387.88	-163.4	1.07051519	100	1	900	300	0	0	0	0	0	0	0	0	0	0	0	0.0000	0.0001	0.0000	0.0000;
	1083	81.8318146	5.77577994	54.91	-19.88	1.1	100	1	120	0	0	0	0	0	0	0	0	0	0	0	0	0.0000	0.0000	0.0000	0.0000;
	1093	1200	170.320817	550.69	-185.15	1.07327719	100	1	1200	400	0	0	0	0	0	0	0	0	0	0	0	0.0001	0.0000	0.0000	0.0000;
	1100	0.066018481	1.01068869e-06	36.8	-13.01	1.08915514	100	1	80	0	0	0	0	0	0	0	0	0	0	0	0	0.0000	0.0000	0.0000	0.0000;
	1102	99.9999967	38.0490785	38.05	-11.59	1.07865307	100	1	100	-165.54	0	0	0	0	0	0	0	0	0	0	0	0.0001	0.0000	0.0000	0.0000;
	1237	1085.83614	118.898728	906.61	-319.44	1.07668069	100	1	2000	666.67	0	0	0	0	0	0	0	0	0	0	0	0.0000	0.0000	0.0000	0.0000;
	1251	969.305393	113.292197	550.69	-185.15	1.0730794	100	1	1200	400	0	0	0	0	0	0	0	0	0	0	0	0.0000	0.0000	0.0000	0.0000;
	1295	99.9999997	33.4924472	36.92	-12.88	1.09927179	100	1	100	-165.47	0	0	0	0	0	0	0	0	0	0	0	0.0002	0.0000	0.0000	0.0000;
	1341	120	57.03	57.03	-17.62	1.08138367	100	1	120	0	0	0	0	0	0	0	0	0	0	0	0	0.0133	0.0000	0.0027	0.0000;
	1354	100	38.0799913	38.08	-11.73	1.0817337	100	1	100	-328.67	0	0	0	0	0	0	0	0	0	0	0	0.0007	0.0000	0.0000	0.0000;
	1422	40.6504584	5.49833313	18.09	-6.79	1.09997719	100	1	100	-134.67	0	0	0	0	0	0	0	0	0	0	0	0.0000	0.0000	0.0000	0.0000;
	1436	0	-12.0899997	37.72	-12.09	1.09653317	100	1	80	0	0	0	0	0	0	0	0	0	0	0	0	0.0000	0.0015	0.0000	0.0002;
	1478	42.9835618	-2.71268917	36.4	-13.44	1.08989135	100	1	80	0	0	0	0	0	0	0	0	0	0	0	0	0.0000	0.0000	0.0000	0.0000;
	1604	65.977491	6.96910343	37.66	-12.17	1.08217107	100	1	80	0	0	0	0	0	0	0	0	0	0	0	0	0.0000	0.0000	0.0000	0.0000;
	1642	80	37.7399998	37.74	-12.11	1.03513078	100	1	80	0	0	0	0	0	0	0	0	0	0	0	0	0.0012	0.0000	0.0002	0.0000;
	1680	1709.74423	29.5735827	928.89	-296.1	1.0218552	100	1	2000	666.67	0	0	0	0	0	0	0	0	0	0	0	0.0000	0.0000	0.0000	0.0000;
	1708	1000	175.06636	439.37	-173.3	1.07337591	100	1	1000	333.33	0	0	0	0	0	0	0	0	0	0	0	0.0061	0.0000	0.0000	0.0000;
	1721	5.95032	-2.25900636	18.52	-6.39	1.08397402	100	1	40	0	0	0	0	0	0	0	0	0	0	0	0	0.0000	0.0000	0.0000	0.0000;
	1754	41.06	-7.92	16.99	-7.92	1.0565897	100	1	41.06	0	0	0	0	0	0	0	0	0	0	0	0	0.0125	0.0000	0.0000	0.0005;
	1794	777.832727	-3.27217464	926.35	-297.68	1.02007202	100	1	2000	666.67	0	0	0	0	0	0	0	0	0	0	0	0.0000	0.0000	0.0000	0.0000;
	1808	41.0161446	12.4012663	111.23	-38.16	1.0855772	100	1	100	-0.8	0	0	0	0	0	0	0	0	0	0	0	0.0000	0.0000	0.0000	0.0000;
	1851	0	-8.88999972	11.76	-8.89	1.09654535	100	1	31.92	0	0	0	0	0	0	0	0	0	0	0	0	0.0000	0.0015	0.0000	0.0002;
	1852	100	28.296225	58.16	-16.52	1.09979394	100	1	100	-322.4	0	0	0	0	0	0	0	0	0	0	0	0.0007	0.0000	0.0000	0.0000;
	1888	456.778912	206.801366	396.02	-155.83	1.06905218	100	1	912.78	312.78	0	0	0	0	0	0	0	0	0	0	0	0.0000	0.0000	0.0000	0.0000;
	1914	170.210054	0.67102089	160.36	-150.95	1.09734857	100	1	472.16	39.35	0	0	0	0	0	0	0	0	0	0	0	0.0000	0.0000	0.0000	0.0000;
	1959	0	-6.080281e-07	18.14	-6.75	1.09555069	100	1	40	0	0	0	0	0	0	0	0	0	0	0	0	0.0000	0.0061	0.0000	0.0000;
	2035	586.755385	102.47873	441.85	-171.27	1.03844779	100	1	1000	333.33	0	0	0	0	0	0	0	0	0	0	0	0.0000	0.0000	0.0000	0.0000;
	2050	666.67	151.399937	962.2	-263.65	1.06896018	100	1	2000	666.67	0	0	0	0	0	0	0	0	0	0	0	0.0000	0.0046	0.0000	0.0000;
	2085	200	16.0975161	88.39	-36.19	1.03531897	100	1	200	0	0	0	0	0	0	0	0	0	0	0	0	0.0019	0.0000	0.0000	0.0000;
	2177	100	-16.26	58.35	-16.26	1.1	100	1	100	-161.73	0	0	0	0	0	0	0	0	0	0	0	0.0060	0.0000	0.0000	0.0017;
	2197	100	-14.7399982	19.51	-14.74	1.07329585	100	1	100	-71.05	0	0	0	0	0	0	0	0	0	0	0	0.0016	0.0000	0.0000	0.0001;
	2276	0.0231158997	-4.22443432e-06	41.67	-36.5	1.09985381	100	1	119.3	0	0	0	0	0	0	0	0	0	0	0	0	0.0000	0.0000	0.0000	0.0000;
	2291	94.4443611	-28.93	95.69	-28.93	1.09170242	100	1	200	0	0	0	0	0	0	0	0	0	0	0	0	0.0000	0.0000	0.0000	0.0033;
	2359	80	22.9991633	34.35	-15.5	1.07459781	100	1	80	0	0	0	0	0	0	0	0	0	0	0	0	0.0080	0.0000	0.0000	0.0000;
	2421	100	-12.45	37.39	-12.45	1.07461989	100	1	100	-427.2	0	0	0	0	0	0	0	0	0	0	0	0.0334	0.0000	0.0000	0.0084;
	2425	100	23.3704679	54.3	-20.49	1.03379844	100	1	100	-134	0	0	0	0	0	0	0	0	0	0	0	0.0112	0.0000	0.0000	0.0000;
	2426	100	1.09261094	105.34	-99.02	1.09866929	100	1	100	-57.6	0	0	0	0	0	0	0	0	0	0	0	0.0032	0.0000	0.0000	0.0000;
	2446	666.67	14.2257624	921.62	-304.73	1.03754221	100	1	2000	666.67	0	0	0	0	0	0	0	0	0	0	0	0.0000	0.0028	0.0000	0.0000;
	2468	4.09089128	-2.57501789	38.02	-11.81	1.09917463	100	1	80	0	0	0	0	0	0	0	0	0	0	0	0	0.0000	0.0000	0.0000	0.0000;
	2481	80	0.445457944	39.12	-10.71	1.09364781	100	1	80	0	0	0	0	0	0	0	0	0	0	0	0	0.0003	0.0000	0.0000	0.0000;
	2489	68.3537034	31.0962459	162.4	-61.79	1.08374294	100	1	360	0	0	0	0	0	0	0	0	0	0	0	0	0.0000	0.0000	0.0000	0.0000;
	2550	0.0055601038	-4.51527147	58.23	-16.49	1.09951634	100	1	120	0	0	0	0	0	0	0	0	0	0	0	0	0.0000	0.0000	0.0000	0.0000;
	2600	160	0.662339353	76.08	-23.59	1.09990211	100	1	160	0	0	0	0	0	0	0	0	0	0	0	0	0.0010	0.0000	0.0000	0.0000;
	2627	666.67	11.8712266	921.52	-304.79	1.03707032	100	1	2000	666.67	0	0	0	0	0	0	0	0	0	0	0	0.0000	0.0022	0.0000	0.0000;
	2653	120	-22.8	51.94	-22.8	1.05713038	100	1	120	0	0	0	0	0	0	0	0	0	0	0	0	0.0360	0.0000	0.0000	0.0004;
	2719	196.72	0.496278919	70.15	-58.1	1.1	100	1	196.72	0	0	0	0	0	0	0	0	0	0	0	0	0.0001	0.0000	0.0000	0.0000;
	2786	666.67	129.73274	934.81	-291.47	1.06663219	100	1	2000	666.67	0	0	0	0	0	0	0	0	0	0	0	0.0000	0.0058	0.0000	0.0000;
	2797	80.8714326	21.3702087	88.33	-36.33	1.08915479	100	1	100	-126.8	0	0	0	0	0	0	0	0	0	0	0	0.0000	0.0000	0.0000	0.0000;
	2799	0	-6.57048302e-06	77.91	-21.66	1.09551747	100	1	160	0	0	0	0	0	0	0	0	0	0	0	0	0.0000	0.0012	0.0000	0.0000;
	2816	746.19478	7.62059869	926.26	-297.74	1.02141637	100	1	2000	666.67	0	0	0	0	0	0	0	0	0	0	0	0.0000	0.0000	0.0000	0.0000;
	2841	0.0432762583	-0.153681812	55.98	-18.76	1.09893883	100	1	120	0	0	0	0	0	0	0	0	0	0	0	0	0.0000	0.0000	0.0000	0.0000;
	2842	39.9999991	7.9409948	18.19	-6.74	1.08213052	100	1	40	0	0	0	0	0	0	0	0	0	0	0	0	0.0001	0.0000	0.0000	0.0000;
	2872	9.05000001	-2.53999974	3.31	-2.54	1.08950925	100	1	9.05	0	0	0	0	0	0	0	0	0	0	0	0	0.0016	0.0000	0.0000	0.0002;
	2878	214.86	10.6918023	72.95	-68.71	1.09224454	100	1	214.86	0	0	0	0	0	0	0	0	0	0	0	0	0.0005	0.0000	0.0000	0.0000;
	2886	1.73376727	-17.0199943	57.69	-17.02	1.08871957	100	1	120	0	0	0	0	0	0	0	0	0	0	0	0	0.0000	0.0000	0.0000	0.0000;
	2902	0.0127122675	-3.09372844	19.19	-5.72	1.09985503	100	1	40	0	0	0	0	0	0	0	0	0	0	0	0	0.0000	0.0000	0.0000	0.0000;
	2930	0	-12.5399996	37.24	-12.54	1.09651386	100	1	80	0	0	0	0	0	0	0	0	0	0	0	0	0.0000	0.0015	0.0000	0.0002;
	2934	0.00406415889	-3.99704794e-06	2.51	-1.91	1.09950306	100	1	6.83	0	0	0	0	0	0	0	0	0	0	0	0	0.0000	0.0000	0.0000	0.0000;
	2985	37.5437331	-4.95220476	184.46	-132.67	1.08674888	100	1	493.35	0	0	0	0	0	0	0	0	0	0	0	0	0.0000	0.0000	0.0000	0.0000;
	3018	0	-8.3534187	89.61	-34.82	1.09610522	100	1	200	0	0	0	0	0	0	0	0	0	0	0	0	0.0000	0.0009	0.0000	0.0000;
	3028	541.620355	93.675333	441.85	-171.27	1.03815011	100	1	1000	333.33	0	0	0	0	0	0	0	0	0	0	0	0.0000	0.0000	0.0000	0.0000;
	3114	24.465141	-7.61	17.33	-7.61	1.09368955	100	1	40	0	0	0	0	0	0	0	0	0	0	0	0	0.0000	0.0000	0.0000	0.0034;
	3133	20.1125194	-35.559996	113.97	-35.56	1.08500405	100	1	240	0	0	0	0	0	0	0	0	0	0	0	0	0.0000	0.0000	0.0000	0.0000;
	3134	61.8562694	24.4531465	70.25	-29.33	1.09648192	100	1	100	-181.73	0	0	0	0	0	0	0	0	0	0	0	0.0000	0.0000	0.0000	0.0000;
	3183	0	-6.29839022e-07	53.7	-20.98	1.09551747	100	1	120	0	0	0	0	0	0	0	0	0	0	0	0	0.0000	0.0012	0.0000	0.0000;
	3205	283.410156	97.8973979	243.61	-88.46	1.06126142	100	1	540	0	0	0	0	0	0	0	0	0	0	0	0	0.0000	0.0000	0.0000	0.0000;
	3218	89.3938462	12.1257025	36.79	-13	1.09489877	100	1	100	-143.2	0	0	0	0	0	0	0	0	0	0	0	0.0000	0.0000	0.0000	0.0000;
	3240	-56.4	6.38890855	62.23	-51.37	1.0878335	100	1	100	-56.4	0	0	0	0	0	0	0	0	0	0	0	0.0000	0.0009	0.0000	0.0000;
	3306	333.33	-11.5189729	439.2	-173.43	1.0718327	100	1	1000	333.33	0	0	0	0	0	0	0	0	0	0	0	0.0000	0.0025	0.0000	0.0000;
	3324	100	38.13	38.13	-11.64	1.08204429	100	1	100	-35.3	0	0	0	0	0	0	0	0	0	0	0	0.0144	0.0000	0.0018	0.0000;
	3346	80	37.1	37.1	-12.76	1.04981502	100	1	80	0	0	0	0	0	0	0	0	0	0	0	0	0.0133	0.0000	0.0021	0.0000;
	3353	3.0186705e-07	-2.77776162	38.2	-11.61	1.08845013	100	1	80	0	0	0	0	0	0	0	0	0	0	0	0	0.0000	0.0002	0.0000	0.0000;
	3364	0	-7.40991876e-06	47.19	-41.44	1.09551747	100	1	135.27	0	0	0	0	0	0	0	0	0	0	0	0	0.0000	0.0012	0.0000	0.0000;
	3390	120	54.59	54.59	-20.19	1.06749202	100	1	120	0	0	0	0	0	0	0	0	0	0	0	0	0.0215	0.0000	0.0020	0.0000;
	3422	0	-9.46358123	58.19	-16.5	1.09557955	100	1	120	0	0	0	0	0	0	0	0	0	0	0	0	0.0000	0.0061	0.0000	0.0000;
	3436	1200	76.8162932	550.97	-184.89	1.0883068	100	1	1200	400	0	0	0	0	0	0	0	0	0	0	0	0.0072	0.0000	0.0000	0.0000;
	3492	89.1093581	6.06316291	53.75	-21.08	1.09967448	100	1	100	-494.4	0	0	0	0	0	0	0	0	0	0	0	0.0000	0.0000	0.0000	0.0000;
	3513	857.959677	125.551177	387.88	-163.4	1.07048702	100	1	900	300	0	0	0	0	0	0	0	0	0	0	0	0.0000	0.0000	0.0000	0.0000;
	3565	42.7911643	-10.9665395	38.83	-10.97	1.09894557	100	1	80	0	0	0	0	0	0	0	0	0	0	0	0	0.0000	0.0000	0.0000	0.0000;
	3580	522.915458	80.0026511	261.7	-107.36	1.08469421	100	1	600	0	0	0	0	0	0	0	0	0	0	0	0	0.0000	0.0000	0.0000	0.0000;
	3611	100	32.6275821	54.59	-20.12	1.09323223	100	1	100	-167.2	0	0	0	0	0	0	0	0	0	0	0	0.0014	0.0000	0.0000	0.0000;
	3656	100	-33.32	116.07	-33.32	1.09385172	100	1	100	-34.93	0	0	0	0	0	0	0	0	0	0	0	0.0007	0.0000	0.0000	0.0036;
	3661	333.33	-34.5845685	441.04	-172.05	1.06705777	100	1	1000	333.33	0	0	0	0	0	0	0	0	0	0	0	0.0000	0.0046	0.0000	0.0000;
	3698	100	25.988059	36.34	-13.47	1.09007374	100	1	100	-16.78	0	0	0	0	0	0	0	0	0	0	0	0.0388	0.0000	0.0000	0.0000;
	3741	586.755385	102.67613	548.57	-187.16	1.03850706	100	1	1200	400	0	0	0	0	0	0	0	0	0	0	0	0.0000	0.0000	0.0000	0.0000;
	3809	700	135.115329	313.01	-116.73	1.1	100	1	700	233.33	0	0	0	0	0	0	0	0	0	0	0	0.0325	0.0000	0.0000	0.0000;
	3825	900	112.612326	388.17	-163.4	1.07302762	100	1	900	300	0	0	0	0	0	0	0	0	0	0	0	0.0000	0.0000	0.0000	0.0000;
	3869	515.638013	84.8749617	440.69	-172.14	1.03706945	100	1	1000	333.33	0	0	0	0	0	0	0	0	0	0	0	0.0000	0.0000	0.0000	0.0000;
	3876	100	34.27	34.27	-15.52	1.07249542	100	1	100	-33.47	0	0	0	0	0	0	0	0	0	0	0	0.0154	0.0000	0.0015	0.0000;
	3916	100	38.02	38.02	-11.77	1.07575286	100	1	100	-28.37	0	0	0	0	0	0	0	0	0	0	0	0.0207	0.0000	0.0004	0.0000;
	3951	-29.637575	-6.24798928	126.16	-127.56	1.09531944	100	1	100	-36.13	0	0	0	0	0	0	0	0	0	0	0	0.0000	0.0000	0.0000	0.0000;
	3971	-2.9375176e-07	2.87593829e-06	55.67	-19.09	1.09287299	100	1	100	-179.33	0	0	0	0	0	0	0	0	0	0	0	0.0000	0.0000	0.0000	0.0000;
	4024	200	16.1012727	97.07	-27.44	1.03532053	100	1	200	0	0	0	0	0	0	0	0	0	0	0	0	0.0019	0.0000	0.0000	0.0000;
	4056	56.0490553	-3.22812565	38.05	-11.77	1.09235718	100	1	100	-102.53	0	0	0	0	0	0	0	0	0	0	0	0.0000	0.0000	0.0000	0.0000;
	4084	372.272495	6.94473305	264.94	-103.74	1.09287299	100	1	600	0	0	0	0	0	0	0	0	0	0	0	0	0.0000	0.0000	0.0000	0.0000;
	4118	80	1.46371783	38.37	-11.4	1.09115733	100	1	80	0	0	0	0	0	0	0	0	0	0	0	0	0.0055	0.0000	0.0000	0.0000;
	4125	80	36.89	36.89	-13	1.03235624	100	1	80	0	0	0	0	0	0	0	0	0	0	0	0	0.0151	0.0000	0.0045	0.0000;
	4128	120	57.03	57.03	-17.63	1.09410884	100	1	120	0	0	0	0	0	0	0	0	0	0	0	0	0.0034	0.0000	0.0017	0.0000;
	4231	1333.33	178.01049	Inf	-Inf	1.06971246	100	1	4188.95	1333.33	0	0	0	0	0	0	0	0	0	0	0	0.0000	0.0026	0.0000	0.0000;
	4331	37.3764905	11.8126251	36.73	-13.12	1.09490832	100	1	80	0	0	0	0	0	0	0	0	0	0	0	0	0.0000	0.0000	0.0000	0.0000;
	4395	100	38.4799999	38.48	-11.33	1.08796951	100	1	100	-172.13	0	0	0	0	0	0	0	0	0	0	0	0.0279	0.0000	0.0002	0.0000;
	4419	333.33	-46.335571	441.04	-172.05	1.06698022	100	1	1000	333.33	0	0	0	0	0	0	0	0	0	0	0	0.0000	0.0046	0.0000	0.0000;
	4480	333.33	-11.746756	439.2	-173.43	1.07185945	100	1	1000	333.33	0	0	0	0	0	0	0	0	0	0	0	0.0000	0.0025	0.0000	0.0000;
	4482	42.0857336	12.1692217	38.85	-10.95	1.08102141	100	1	80	0	0	0	0	0	0	0	0	0	0	0	0	0.0000	0.0000	0.0000	0.0000;
	4506	100	37.86	37.86	-11.95	1.05506341	100	1	100	-229.07	0	0	0	0	0	0	0	0	0	0	0	0.0026	0.0000	0.0031	0.0000;
	4566	100	3.27114897	37.94	-11.87	1.1	100	1	100	-40.51	0	0	0	0	0	0	0	0	0	0	0	0.0186	0.0000	0.0000	0.0000;
	4624	80	35.62	35.62	-14.19	1.09134188	100	1	80	0	0	0	0	0	0	0	0	0	0	0	0	0.0035	0.0000	0.0003	0.0000;
	4661	74.1896551	-5.77	19.14	-5.77	1.1	100	1	100	-105.2	0	0	0	0	0	0	0	0	0	0	0	0.0000	0.0000	0.0000	0.0008;
	4701	0.143768624	-3.82010012e-07	98.4	-86.29	1.07986519	100	1	281.85	0	0	0	0	0	0	0	0	0	0	0	0	0.0000	0.0000	0.0000	0.0000;
	4783	333.33	-10.88433	439.2	-173.43	1.07182691	100	1	1000	333.33	0	0	0	0	0	0	0	0	0	0	0	0.0000	0.0025	0.0000	0.0000;
	4816	100	38.37	38.37	-11.44	1.08774402	100	1	100	-34.77	0	0	0	0	0	0	0	0	0	0	0	0.0089	0.0000	0.0027	0.0000;
	4819	562.514196	93.1347859	440.69	-172.14	1.03723061	100	1	1000	333.33	0	0	0	0	0	0	0	0	0	0	0	0.0000	0.0000	0.0000	0.0000;
	4823	10.46	-2.07	4.44	-2.07	1.09729849	100	1	10.46	0	0	0	0	0	0	0	0	0	0	0	0	0.0008	0.0000	0.0000	0.0007;
	4850	46.6461993	-2.79591914	76.52	-23.19	1.08946989	100	1	160	0	0	0	0	0	0	0	0	0	0	0	0	0.0000	0.0000	0.0000	0.0000;
	4880	5.80059121	-0.441814804	75.62	-23.96	1.1	100	1	100	-53.73	0	0	0	0	0	0	0	0	0	0	0	0.0000	0.0000	0.0000	0.0000;
	4918	80	37.27	37.27	-12.57	1.06862133	100	1	80	0	0	0	0	0	0	0	0	0	0	0	0	0.0166	0.0000	0.0009	0.0000;
	4952	70.2032045	6.99346469	37.23	-12.61	1.09326314	100	1	100	-16.77	0	0	0	0	0	0	0	0	0	0	0	0.0000	0.0000	0.0000	0.0000;
	5004	218.759495	-17.7728475	74.73	-70.41	1.09851171	100	1	220.12	0	0	0	0	0	0	0	0	0	0	0	0	0.0000	0.0000	0.0000	0.0000;
	5019	0	-12.0899996	37.72	-12.09	1.09653439	100	1	80	0	0	0	0	0	0	0	0	0	0	0	0	0.0000	0.0015	0.0000	0.0002;
	5051	0	-0.955234121	74.55	-24.97	1.09568132	100	1	160	0	0	0	0	0	0	0	0	0	0	0	0	0.0000	0.0003	0.0000	0.0000;
	5067	600	60.6182399	258.91	-109.58	1.02507429	100	1	600	0	0	0	0	0	0	0	0	0	0	0	0	0.0025	0.0000	0.0000	0.0000;
	5110	100	38.2799998	38.28	-11.5	1.0948298	100	1	100	-70.01	0	0	0	0	0	0	0	0	0	0	0	0.0013	0.0000	0.0002	0.0000;
	5120	0.0278172415	-3.31297759e-06	56.35	-18.42	1.09985364	100	1	120	0	0	0	0	0	0	0	0	0	0	0	0	0.0000	0.0000	0.0000	0.0000;
	5144	1216.5974	119.096862	882.86	-343.24	1.07332997	100	1	2000	666.67	0	0	0	0	0	0	0	0	0	0	0	0.0000	0.0000	0.0000	0.0000;
	5237	64.0552781	-24.74	75.02	-24.74	1.08998687	100	1	160	0	0	0	0	0	0	0	0	0	0	0	0	0.0000	0.0000	0.0000	0.0007;
	5278	120	24.2759417	51.3	-23.49	1.09019575	100	1	120	0	0	0	0	0	0	0	0	0	0	0	0	0.0386	0.0000	0.0000	0.0000;
	5340	100	36.3699991	36.37	-13.43	1.08989824	100	1	100	-212	0	0	0	0	0	0	0	0	0	0	0	0.0050	0.0000	0.0001	0.0000;
	5365	0	-6.75	18.14	-6.75	1.09686803	100	1	40	0	0	0	0	0	0	0	0	0	0	0	0	0.0000	0.0061	0.0000	0.0004;
	5379	1085.83614	119.722147	926.47	-297.63	1.07676934	100	1	2000	666.67	0	0	0	0	0	0	0	0	0	0	0	0.0000	0.0000	0.0000	0.0000;
	5395	100	0.10696324	58.06	-16.66	1.09690304	100	1	100	-527.73	0	0	0	0	0	0	0	0	0	0	0	0.0125	0.0000	0.0000	0.0000;
	5461	80	38.26	38.26	-11.55	1.07800369	100	1	80	0	0	0	0	0	0	0	0	0	0	0	0	0.0064	0.0000	0.0009	0.0000;
	5481	885.478764	21.9586345	920.31	-305.64	1.07718657	100	1	2000	666.67	0	0	0	0	0	0	0	0	0	0	0	0.0000	0.0000	0.0000	0.0000;
	5482	41.5367468	-48.1199997	101.32	-48.12	1.09997137	100	1	249.06	0	0	0	0	0	0	0	0	0	0	0	0	0.0000	0.0000	0.0000	0.0002;
	5486	333.33	-34.6240218	441.04	-172.05	1.06707074	100	1	1000	333.33	0	0	0	0	0	0	0	0	0	0	0	0.0000	0.0046	0.0000	0.0000;
	5488	100	37.49	37.49	-12.33	1.08170825	100	1	100	-128.53	0	0	0	0	0	0	0	0	0	0	0	0.0239	0.0000	0.0049	0.0000;
	5490	3399.40452	56.8240205	1765.36	-686.67	1.07937313	100	1	4000	1333.33	0	0	0	0	0	0	0	0	0	0	0	0.0000	0.0000	0.0000	0.0000;
	5533	200	8.13542573	88.87	-35.71	1.09954461	100	1	200	0	0	0	0	0	0	0	0	0	0	0	0	0.0016	0.0000	0.0000	0.0000;
	5546	0.0179251913	-2.01823391e-06	19.16	-5.75	1.09985409	100	1	40	0	0	0	0	0	0	0	0	0	0	0	0	0.0000	0.0000	0.0000	0.0000;
	5564	80	22.3677412	36.8	-12.99	1.09784055	100	1	80	0	0	0	0	0	0	0	0	0	0	0	0	0.0067	0.0000	0.0000	0.0000;
	5658	240	103.18	103.18	-46.25	1.05462647	100	1	240	0	0	0	0	0	0	0	0	0	0	0	0	0.0300	0.0000	0.0005	0.0000;
	5664	2.45894584	0.768932022	72.71	-27.05	1.08253566	100	1	160	0	0	0	0	0	0	0	0	0	0	0	0	0.0000	0.0000	0.0000	0.0000;
	5709	969.305391	113.12678	550.69	-185.15	1.0730583	100	1	1200	400	0	0	0	0	0	0	0	0	0	0	0	0.0000	0.0000	0.0000	0.0000;
	5781	1745.30009	71.6399744	779.29	-324.79	1.06989711	100	1	1800	600	0	0	0	0	0	0	0	0	0	0	0	0.0000	0.0000	0.0000	0.0000;
	5814	440	112.684253	196.98	-77.17	1.08363848	100	1	440	146.67	0	0	0	0	0	0	0	0	0	0	0	0.0066	0.0000	0.0000	0.0000;
	5856	480	87.2528514	214.13	-85	1.09406103	100	1	480	160	0	0	0	0	0	0	0	0	0	0	0	0.0046	0.0000	0.0000	0.0000;
	5881	48.0234883	-5.98489455	36.72	-13.13	1.09000541	100	1	80	0	0	0	0	0	0	0	0	0	0	0	0	0.0000	0.0000	0.0000	0.0000;
	5940	100	17.21	17.21	-7.73	1.09462854	100	1	100	-99.87	0	0	0	0	0	0	0	0	0	0	0	0.0076	0.0000	0.0012	0.0000;
	5971	666.67	117.899802	934.54	-291.64	1.06430849	100	1	2000	666.67	0	0	0	0	0	0	0	0	0	0	0	0.0000	0.0064	0.0000	0.0000;
	5983	100	-12.59	37.27	-12.59	1.08170259	100	1	100	-136.67	0	0	0	0	0	0	0	0	0	0	0	0.0021	0.0000	0.0000	0.0004;
	5994	58.9037433	11.1097297	60.51	-61.08	1.1	100	1	100	-116.4	0	0	0	0	0	0	0	0	0	0	0	0.0000	0.0000	0.0000	0.0000;
	6036	768.791127	-43.8529904	390.4	-161.16	1.06050613	100	1	900	300	0	0	0	0	0	0	0	0	0	0	0	0.0000	0.0000	0.0000	0.0000;
	6153	32.0800017	10.0197124	249.65	-261.82	1.05253863	100	1	769.94	32.08	0	0	0	0	0	0	0	0	0	0	0	0.0000	0.0001	0.0000	0.0000;
	6168	0	-0.0328955189	19.86	-14.93	1.09999496	100	1	53.76	0	0	0	0	0	0	0	0	0	0	0	0	0.0000	0.0023	0.0000	0.0000;
	6291	120	13.308524	58.12	-16.6	1.08710819	100	1	120	0	0	0	0	0	0	0	0	0	0	0	0	0.0254	0.0000	0.0000	0.0000;
	6331	0	2.48926884e-07	37.76	-12.05	1.0878335	100	1	80	0	0	0	0	0	0	0	0	0	0	0	0	0.0000	0.0009	0.0000	0.0000;
	6332	0	-27.0900629	96.56	-27.95	1.09607991	100	1	200	0	0	0	0	0	0	0	0	0	0	0	0	0.0000	0.0061	0.0000	0.0000;
	6351	80	38.29	38.29	-11.56	1.09817808	100	1	80	0	0	0	0	0	0	0	0	0	0	0	0	0.0033	0.0000	0.0004	0.0000;
	6368	100	51.1099896	51.11	-23.46	1.07560432	100	1	100	-193.73	0	0	0	0	0	0	0	0	0	0	0	0.0039	0.0000	0.0000	0.0000;
	6376	11.787212	19.953506	148.65	-50.73	1.08414624	100	1	100	-37.07	0	0	0	0	0	0	0	0	0	0	0	0.0000	0.0000	0.0000	0.0000;
	6429	200	23.695048	88.83	-35.69	1.07347865	100	1	200	0	0	0	0	0	0	0	0	0	0	0	0	0.0297	0.0000	0.0000	0.0000;
	6474	333.33	1.70778024	438.72	-174.15	1.09290408	100	1	1000	333.33	0	0	0	0	0	0	0	0	0	0	0	0.0000	0.0009	0.0000	0.0000;
	6516	118.447038	87.4738617	126.73	-47.83	1.09412441	100	1	280	0	0	0	0	0	0	0	0	0	0	0	0	0.0000	0.0000	0.0000	0.0000;
	6552	100	20.7998427	37.58	-12.16	1.1	100	1	100	-272.27	0	0	0	0	0	0	0	0	0	0	0	0.0252	0.0000	0.0000	0.0000;
	6734	54.1429789	4.8844119	311.52	-132.09	1.09868016	100	1	720	0	0	0	0	0	0	0	0	0	0	0	0	0.0000	0.0000	0.0000	0.0000;
	6807	26.5272253	63.3584673	77.14	-22.46	1.1	100	1	160	0	0	0	0	0	0	0	0	0	0	0	0	0.0000	0.0000	0.0000	0.0000;
	6816	49.9892161	-6.10421124	77.35	-22.26	1.09985282	100	1	160	0	0	0	0	0	0	0	0	0	0	0	0	0.0000	0.0000	0.0000	0.0000;
	6820	0.00417368304	-1.55858327e-06	11.99	-9.06	1.0995024	100	1	32.53	0	0	0	0	0	0	0	0	0	0	0	0	0.0000	0.0000	0.0000	0.0000;
	6831	100	35.62	35.62	-14.25	1.09613006	100	1	100	-76.67	0	0	0	0	0	0	0	0	0	0	0	0.0018	0.0000	0.0002	0.0000;
	6845	120	33.9440674	53.24	-21.47	1.09025526	100	1	120	0	0	0	0	0	0	0	0	0	0	0	0	0.0046	0.0000	0.0000	0.0000;
	6852	3.0651846	-5.81578431	18.56	-6.34	1.09566994	100	1	100	-459.87	0	0	0	0	0	0	0	0	0	0	0	0.0000	0.0000	0.0000	0.0000;
	6857	3344.79038	369.894365	1865.83	-585.95	1.05206093	100	1	4000	1333.33	0	0	0	0	0	0	0	0	0	0	0	0.0000	0.0000	0.0000	0.0000;
	6888	88.67	-13.8082464	189.31	-59.87	1.1	100	1	300	88.67	0	0	0	0	0	0	0	0	0	0	0	0.0000	0.0023	0.0000	0.0000;
	6947	9.58176135	88.5644337	126.09	-48.29	1.0885655	100	1	280	0	0	0	0	0	0	0	0	0	0	0	0	0.0000	0.0000	0.0000	0.0000;
...
];

%% branch data
%	fbus	tbus	r	x	b	rateA	rateB	rateC	ratio	angle	status	angmin	angmax	Pf	Qf	Pt	Qt	mu_Sf	mu_St	mu_angmin	mu_angmax
mpc.branch = [
	7351	5441	0.00018	0.000781	0	0	0	0	0	0	1	-360	360	-61.6700	-16.2433	61.6765	16.2713	0.0000	0.0000	0.0000	0.0000;
	4314	7571	0.002961	0.01669	0	319	0	0	0	0	1	-360	360	-26.1300	-0.7388	26.1475	0.8377	0.0000	0.0000	0.0000	0.0000;
	5803	3916	0.00056	0.00432	0	0	0	0	0	0	1	-360	360	0.0000	0.4050	0.0000	-0.4050	0.0000	0.0000	0.0000	0.0000;
	6757	6036	0.0002	0.00246	0	657	0	0	0	0	1	-360	360	-265.0277	30.7189	265.1543	-29.1625	0.0000	0.0000	0.0000	0.0000;
	6757	6921	0.0003	0.00377	0	1315	0	0	0	0	1	-360	360	265.0277	-23.3271	-264.8390	25.6989	0.0000	0.0000	0.0000	0.0000;
	5019	9112	0.00014	0.00057	0	0	0	0	0	0	1	-360	360	-0.0000	-12.0900	0.0002	12.0907	0.0000	0.0000	0.0000	0.0000;
	2930	9112	0.00013	0.000729	0	0	0	0	0	0	1	-360	360	-0.0000	-12.5400	0.0002	12.5410	0.0000	0.0000	0.0000	0.0000;
	1436	9112	0.00012	0.000581	0	0	0	0	0	0	1	-360	360	-0.0000	-12.0900	0.0001	12.0907	0.0000	0.0000	0.0000	0.0000;
	1851	9112	0.00011	0.00064	0	0	0	0	0	0	1	-360	360	-0.0000	-8.8900	0.0001	8.8904	0.0000	0.0000	0.0000	0.0000;
	8331	9112	0.00019	0.00056	0	0	0	0	0	0	1	-360	360	0.0000	0.0601	0.0000	-0.0601	0.0000	0.0000	0.0000	0.0000;
	6220	8791	0.00062	0.004909	0	529	0	0	0	0	1	-360	360	-231.9000	-27.1842	232.1926	29.5013	0.0000	0.0000	0.0000	0.0000;
	9203	7842	7e-05	0.00076	0	887	0	0	0	0	1	-360	360	-199.9746	22.7131	200.0000	-22.4375	0.0000	0.0000	0.0000	0.0000;
	9203	8997	0.00066	0.00622	0	1611	0	0	0	0	1	-360	360	-300.8347	42.1800	301.3799	-37.0421	0.0000	0.0000	0.0000	0.0000;
	9203	2129	0.00054	0.00752	0	0	0	0	0	0	1	-360	360	-186.4851	-115.6314	186.7178	118.8724	0.0000	0.0000	0.0000	0.0000;
	9203	29	0.00105	0.00877	0	1315	0	0	0	0	1	-360	360	190.1656	62.8694	-189.7885	-59.7202	0.0000	0.0000	0.0000	0.0000;
	118	8903	8e-05	0.00091	0	657	0	0	0	0	1	-360	360	-86.7242	28.4757	86.7300	-28.4100	0.0000	0.0000	0.0000	0.0000;
	118	4598	0.00056	0.00719	0	953	0	0	0	0	1	-360	360	-362.2669	19.0126	362.9055	-10.8130	0.0000	0.0000	0.0000	0.0000;
	2426	5533	0.000531	0.002039	0	319	0	0	0	0	1	-360	360	-183.8132	0.9904	183.9618	-0.4196	0.0000	0.0000	0.0000	0.0000;
	2426	4831	0.008659	0.03769	0	300	0	0	0	0	1	-360	360	56.8689	19.9953	-56.6083	-18.8606	0.0000	0.0000	0.0000	0.0000;
	2426	8961	0.003849	0.021099	0	0	0	0	0	0	1	-360	360	-36.0224	1.7220	36.0639	-1.4947	0.0000	0.0000	0.0000	0.0000;
	2426	8522	0.00688	0.035969	0	300	0	0	0	0	1	-360	360	2.5077	14.0122	-2.4962	-13.9518	0.0000	0.0000	0.0000	0.0000;
	2426	6888	0.006729	0.03713	0	0	0	0	0	0	1	-360	360	-34.0655	2.4190	34.1306	-2.0602	0.0000	0.0000	0.0000	0.0000;
	2426	3401	0.00111	0.006651	0	414	0	0	0	0	1	-360	360	16.6097	13.2531	-16.6056	-13.2282	0.0000	0.0000	0.0000	0.0000;
	2426	641	0.0023	0.008909	0	0	0	0	0	0	1	-360	360	45.3652	17.7859	-45.3200	-17.6106	0.0000	0.0000	0.0000	0.0000;
	2426	2600	0.000841	0.00313	0	0	0	0	0	0	1	-360	360	-159.8220	0.0000	160.0000	0.6623	0.0000	0.0000	0.0000	0.0000;
	2426	5351	0.003521	0.017479	0	300	0	0	0	0	1	-360	360	6.3028	4.9479	-6.3009	-4.9386	0.0000	0.0000	0.0000	0.0000;
	3051	718	3.9e-05	0.00025	0	510	0	0	0	0	1	-360	360	0.0000	0.0000	0.0000	0.0000	0.0000	0.0000	0.0000	0.0000;
	3036	2327	0.000159	0.000729	0	357	0	0	0	0	1	-360	360	-116.9300	-29.5852	116.9493	29.6737	0.0000	0.0000	0.0000	0.0000;
	8651	7473	0.005281	0.032099	0	395	0	0	0	0	1	-360	360	-77.6397	-19.6642	77.9266	21.4082	0.0000	0.0000	0.0000	0.0000;
	8651	7473	0.005651	0.029419	0	376	0	0	0	0	1	-360	360	-84.8503	-19.0941	85.2123	20.9789	0.0000	0.0000	0.0000	0.0000;
	903	3654	0.000271	0.00036	0	0	0	0	0	0	1	-360	360	-82.6900	-18.4592	82.7061	18.4806	0.0000	0.0000	0.0000	0.0000;
	8732	7050	0.00044	0.00143	0	472	0	0	0	0	1	-360	360	112.5290	-18.6111	-112.4802	18.7697	0.0000	0.0000	0.0000	0.0000;
	8732	3912	0.000159	0.00074	0	453	0	0	0	0	1	-360	360	-178.7990	14.4932	178.8426	-14.2902	0.0000	0.0000	0.0000	0.0000;
	2273	1973	0.00019	0.000591	0	338	0	0	0	0	1	-360	360	-141.3000	-23.5975	141.3323	23.6979	0.0000	0.0000	0.0000	0.0000;
	5131	2928	0.00019	0.00087	0	0	0	0	0	0	1	-360	360	-0.0000	9.4715	0.0001	-9.4708	0.0000	0.0000	0.0000	0.0000;
	6629	4918	0.002591	0.013659	0	319	0	0	0	0	1	-360	360	-55.8922	-9.7535	55.9656	10.1404	0.0000	0.0000	0.0000	0.0000;
	6629	7309	0.00305	0.01168	0	0	0	0	0	0	1	-360	360	-6.7378	-4.2398	6.7395	4.2463	0.0000	0.0000	0.0000	0.0000;
	413	1102	0.000159	0.000599	0	433	0	0	0	0	1	-360	360	19.4055	0.5344	-19.4050	-0.5324	0.0000	0.0000	0.0000	0.0000;
	413	1102	0.000159	0.00062	0	395	0	0	0	0	1	-360	360	18.7844	0.6756	-18.7840	-0.6737	0.0000	0.0000	0.0000	0.0000;
	3248	4918	0.00101	0.004229	0	472	0	0	0	0	1	-360	360	-156.2489	-8.6677	156.4662	9.5778	0.0000	0.0000	0.0000	0.0000;
	3248	4281	0.00319	0.018651	0	453	0	0	0	0	1	-360	360	65.3190	-4.3226	-65.1989	5.0249	0.0000	0.0000	0.0000	0.0000;
	3248	7309	0.000729	0.00337	0	0	0	0	0	0	1	-360	360	6.7399	2.7460	-6.7395	-2.7445	0.0000	0.0000	0.0000	0.0000;
	1146	1187	0.002961	0.012831	0	281	0	0	0	0	1	-360	360	-129.8609	-43.7800	130.3544	45.9185	0.0000	0.0000	0.0000	0.0000;
	1146	7945	0.000591	0.00339	0	0	0	0	0	0	1	-360	360	97.0209	45.3688	-96.9607	-45.0237	0.0000	0.0000	0.0000	0.0000;
	8900	2421	0.00024	0.001219	0	0	0	0	0	0	1	-360	360	-3.1000	-1.4961	3.1000	1.4962	0.0000	0.0000	0.0000	0.0000;
	6071	2972	0.006219	0.036341	0	376	0	0	0	0	1	-360	360	53.9854	-10.9796	-53.8248	11.9179	0.0000	0.0000	0.0000	0.0000;
	6071	6031	0.001841	0.01193	0	472	0	0	0	0	1	-360	360	-217.4854	-19.2250	218.2320	24.0630	0.0000	0.0000	0.0000	0.0000;
	3293	7264	0.001409	0.01113	0	414	0	0	0	0	1	-360	360	-75.7428	-10.7796	75.8159	11.3566	0.0000	0.0000	0.0000	0.0000;
	3293	283	0.00151	0.00768	0	376	0	0	0	0	1	-360	360	132.0833	34.1635	-131.8344	-32.8974	0.0000	0.0000	0.0000	0.0000;
	3293	3069	0.00599	0.03313	0	395	0	0	0	0	1	-360	360	-64.7256	17.5181	64.9642	-16.1987	0.0000	0.0000	0.0000	0.0000;
	3293	3390	0.001771	0.010151	0	357	0	0	0	0	1	-360	360	-24.7549	-47.4102	24.7998	47.6674	0.0000	0.0000	0.0000	0.0000;
	4689	4936	0.00074	0.00311	0	0	0	0	0	0	1	-360	360	-55.1972	11.3885	55.2168	-11.3064	0.0000	0.0000	0.0000	0.0000;
	4689	4936	0.000729	0.003159	0	0	0	0	0	0	1	-360	360	-54.5028	10.8594	54.5215	-10.7783	0.0000	0.0000	0.0000	0.0000;
	3218	7809	0.005271	0.01906	0	281	0	0	0	0	1	-360	360	66.1378	12.4747	-65.9387	-11.7545	0.0000	0.0000	0.0000	0.0000;
	3218	5455	0.00906	0.053151	0	319	0	0	0	0	1	-360	360	22.8993	-0.4506	-22.8596	0.6832	0.0000	0.0000	0.0000	0.0000;
	3218	1857	0.00405	0.0153	0	0	0	0	0	0	1	-360	360	0.3567	0.1016	-0.3567	-0.1016	0.0000	0.0000	0.0000	0.0000;
	6806	5410	0.00055	0.003961	0	395	0	0	0	0	1	-360	360	55.4067	14.8030	-55.3917	-14.6946	0.0000	0.0000	0.0000	0.0000;
	6806	5410	0.00055	0.003729	0	338	0	0	0	0	1	-360	360	58.9134	15.2067	-58.8965	-15.0919	0.0000	0.0000	0.0000	0.0000;
	6806	1609	0.00107	0.007789	0	414	0	0	0	0	1	-360	360	-148.6142	-26.0943	148.8168	27.5696	0.0000	0.0000	0.0000	0.0000;
	6806	1609	0.00112	0.00775	0	472	0	0	0	0	1	-360	360	-149.3945	-25.1541	149.6084	26.6338	0.0000	0.0000	0.0000	0.0000;
	6806	1609	0.001031	0.00775	0	0	0	0	0	0	1	-360	360	-149.3349	-26.8776	149.5324	28.3620	0.0000	0.0000	0.0000	0.0000;
	6806	2438	0.00062	0.003219	0	0	0	0	0	0	1	-360	360	0.0000	-1.2622	-0.0000	1.2622	0.0000	0.0000	0.0000	0.0000;
	6806	954	0.00068	0.002659	0	414	0	0	0	0	1	-360	360	197.1835	38.9017	-196.9549	-38.0082	0.0000	0.0000	0.0000	0.0000;
	9140	502	0.00193	0.012479	0	491	0	0	0	0	1	-360	360	3.1687	-4.2965	-3.1682	4.2996	0.0000	0.0000	0.0000	0.0000;
	9140	3013	0.001159	0.007229	0	0	0	0	0	0	1	-360	360	2.2000	0.3167	-2.2000	-0.3164	0.0000	0.0000	0.0000	0.0000;
	9140	2949	0.00137	0.008729	0	395	0	0	0	0	1	-360	360	31.0647	9.7666	-31.0523	-9.6875	0.0000	0.0000	0.0000	0.0000;
	9140	2949	0.001401	0.00855	0	433	0	0	0	0	1	-360	360	31.7472	9.7466	-31.7340	-9.6660	0.0000	0.0000	0.0000	0.0000;
	9140	2949	0.001331	0.008521	0	433	0	0	0	0	1	-360	360	31.8194	10.0293	-31.8067	-9.9482	0.0000	0.0000	0.0000	0.0000;
	7070	2208	0.00031	0.00081	0	281	0	0	0	0	1	-360	360	74.9964	23.4809	-74.9800	-23.4381	0.0000	0.0000	0.0000	0.0000;
	7070	8060	0.000341	0.00119	0	281	0	0	0	0	1	-360	360	0.0006	-14.0702	-0.0000	14.0722	0.0000	0.0000	0.0000	0.0000;
	7070	4484	0.00031	0.001281	0	376	0	0	0	0	1	-360	360	-102.7196	-3.9863	102.7476	4.1020	0.0000	0.0000	0.0000	0.0000;
	7070	4239	0.00094	0.0035	0	433	0	0	0	0	1	-360	360	-115.1773	-2.9241	115.2840	3.3211	0.0000	0.0000	0.0000	0.0000;
	8535	7047	7e-05	0.000651	0	0	0	0	0	0	1	-360	360	-72.6800	-20.7940	72.6836	20.8271	0.0000	0.0000	0.0000	0.0000;
	5477	3657	0.00019	0.00124	0	491	0	0	0	0	1	-360	360	-136.6375	6.0031	136.6669	-5.8113	0.0000	0.0000	0.0000	0.0000;
	5477	2928	0.000331	0.002539	0	433	0	0	0	0	1	-360	360	136.6376	15.7954	-136.5859	-15.3983	0.0000	0.0000	0.0000	0.0000;
	3145	2918	0.0016	0.02113	0	0	0	0	0	0	1	-360	360	-1083.8625	65.1521	1102.0275	174.7390	0.0000	0.0000	0.0000	0.0000;
	7770	5317	0.000909	0.004711	0	357	0	0	0	0	1	-360	360	7.9567	51.1304	-7.9350	-51.0179	0.0000	0.0000	0.0000	0.0000;
	7770	5317	0.00088	0.004969	0	319	0	0	0	0	1	-360	360	6.8189	48.7235	-6.7999	-48.6163	0.0000	0.0000	0.0000	0.0000;
	3	8676	0.001841	0.0088	0	0	0	0	0	0	1	-360	360	-16.4074	-38.6074	16.4355	38.7414	0.0000	0.0000	0.0000	0.0000;
	3	8189	0.01013	0.04238	0	395	0	0	0	0	1	-360	360	-134.5926	-4.7708	136.1820	11.4202	0.0000	0.0000	0.0000	0.0000;
	7267	2938	0.00059	0.00802	0	723	0	0	0	0	1	-360	360	89.2663	-52.8671	-89.2047	53.7042	0.0000	0.0000	0.0000	0.0000;
	7267	2938	0.00054	0.0079	0	657	0	0	0	0	1	-360	360	90.9328	-53.2190	-90.8746	54.0695	0.0000	0.0000	0.0000	0.0000;
	7267	3918	0.00171	0.02128	0	986	0	0	0	0	1	-360	360	-236.6589	-60.6763	237.6488	72.9943	0.0000	0.0000	0.0000	0.0000;
	7267	3918	0.00174	0.02084	0	854	0	0	0	0	1	-360	360	-241.7857	-61.1886	242.8353	73.7603	0.0000	0.0000	0.0000	0.0000;
	7267	6581	0.00086	0.01433	0	1151	0	0	0	0	1	-360	360	-703.4119	33.1188	707.5477	35.7943	0.0000	0.0000	0.0000	0.0000;
	7267	6581	0.00087	0.01404	0	723	0	0	0	0	1	-360	360	-717.7888	35.1947	722.1463	35.1250	0.0000	0.0068	0.0000	0.0000;
	7267	3830	0.00126	0.01447	0	1118	0	0	0	0	1	-360	360	496.2610	14.9483	-493.2489	19.6422	0.0000	0.0000	0.0000	0.0000;
	7267	5648	0.00122	0.01509	0	1052	0	0	0	0	1	-360	360	459.7335	18.2451	-457.2289	12.7333	0.0000	0.0000	0.0000	0.0000;
	7267	5648	0.00154	0.019	0	1282	0	0	0	0	1	-360	360	365.1221	14.4160	-363.1280	10.1865	0.0000	0.0000	0.0000	0.0000;
	4918	4907	0.00474	0.03564	0	472	0	0	0	0	1	-360	360	125.8586	31.4683	-125.1600	-26.2155	0.0000	0.0000	0.0000	0.0000;
	4918	5957	0.006	0.047849	0	433	0	0	0	0	1	-360	360	210.5337	52.5078	-208.0600	-32.7801	0.0000	0.0000	0.0000	0.0000;
	4918	5233	0.008039	0.03375	0	281	0	0	0	0	1	-360	360	29.0871	37.7558	-28.9272	-37.0844	0.0000	0.0000	0.0000	0.0000;
	6854	7309	2.1e-05	0.000211	0	510	0	0	0	0	1	-360	360	0.0000	0.0000	0.0000	0.0000	0.0000	0.0000	0.0000	0.0000;
	8311	3680	0.00045	0.002341	0	0	0	0	0	0	1	-360	360	47.5866	-3.3399	-47.5782	3.3840	0.0000	0.0000	0.0000	0.0000;
	2770	8804	0.000669	0.004281	0	433	0	0	0	0	1	-360	360	-85.3900	-13.8980	85.4336	14.1770	0.0000	0.0000	0.0000	0.0000;
	9241	8804	0.00068	0.00419	0	0	0	0	0	0	1	-360	360	0.0000	0.4143	0.0000	-0.4143	0.0000	0.0000	0.0000	0.0000;
	3083	7124	0.000729	0.00431	0	510	0	0	0	0	1	-360	360	-219.4321	-47.6312	219.7406	49.4550	0.0000	0.0000	0.0000	0.0000;
	3083	7124	0.000591	0.004651	0	453	0	0	0	0	1	-360	360	-202.5862	-52.7903	202.8036	54.5012	0.0000	0.0000	0.0000	0.0000;
	3083	8873	0.00099	0.005081	0	338	0	0	0	0	1	-360	360	-145.9516	-29.0098	146.1356	29.9541	0.0000	0.0000	0.0000	0.0000;
	1566	7582	0.00212	0.013031	0	0	0	0	0	0	1	-360	360	-42.2643	10.6097	42.2999	-10.3904	0.0000	0.0000	0.0000	0.0000;
	1566	3541	0.002159	0.01275	0	0	0	0	0	0	1	-360	360	-114.6357	-3.8120	114.8875	5.2989	0.0000	0.0000	0.0000	0.0000;
	8683	3698	0.00025	0.00095	0	0	0	0	0	0	1	-360	360	22.7617	-4.1498	-22.7606	4.1541	0.0000	0.0000	0.0000	0.0000;
	8683	3698	0.000271	0.00089	0	0	0	0	0	0	1	-360	360	23.8488	-5.2977	-23.8474	5.3021	0.0000	0.0000	0.0000	0.0000;
	8683	2801	0.001961	0.012409	0	281	0	0	0	0	1	-360	360	35.4271	1.8213	-35.4064	-1.6899	0.0000	0.0000	0.0000	0.0000;
	8683	8328	0.00044	0.00207	0	472	0	0	0	0	1	-360	360	130.8193	1.8670	-130.7559	-1.5688	0.0000	0.0000	0.0000	0.0000;
	8683	8511	0.000469	0.00143	0	529	0	0	0	0	1	-360	360	297.3206	-35.7910	-296.9667	36.8702	0.0000	0.0000	0.0000	0.0000;
	8683	6570	0.001271	0.01406	0	529	0	0	0	0	1	-360	360	-350.7728	44.6694	352.1102	-29.8750	0.0000	0.0000	0.0000	0.0000;
	8683	6570	0.00124	0.013021	0	529	0	0	0	0	1	-360	360	-378.3587	50.0257	379.8786	-34.0649	0.0000	0.0000	0.0000	0.0000;
	8683	8975	0.000409	0.00239	0	0	0	0	0	0	1	-360	360	0.0006	-13.1222	-0.0000	13.1257	0.0000	0.0000	0.0000	0.0000;
	8683	216	0.00094	0.005	0	338	0	0	0	0	1	-360	360	125.6863	30.2771	-125.5541	-29.5738	0.0000	0.0000	0.0000	0.0000;
	8683	2961	0.000219	0.0007	0	529	0	0	0	0	1	-360	360	313.2607	10.8578	-313.0796	-10.2790	0.0000	0.0000	0.0000	0.0000;
	8683	6773	6e-05	0.00025	0	0	0	0	0	0	1	-360	360	0.0000	-2.5905	0.0000	2.5905	0.0000	0.0000	0.0000	0.0000;
	8683	5278	5e-05	0.000229	0	0	0	0	0	0	1	-360	360	-119.9937	-24.2471	120.0000	24.2759	0.0000	0.0000	0.0000	0.0000;
	3768	2751	0.00019	0.000909	0	0	0	0	0	0	1	-360	360	-19.8200	-10.8404	19.8208	10.8442	0.0000	0.0000	0.0000	0.0000;
	2276	5546	0.001711	0.00782	0	0	0	0	0	0	1	-360	360	-0.0179	0.0000	0.0179	-0.0000	0.0000	0.0000	0.0000	0.0000;
	2276	6816	0.002651	0.01176	0	319	0	0	0	0	1	-360	360	0.0410	-0.0000	-0.0410	0.0000	0.0000	0.0000	0.0000	0.0000;
	7766	444	0.001409	0.010599	0	0	0	0	0	0	1	-360	360	-75.7281	-18.9842	75.8052	19.5642	0.0000	0.0000	0.0000	0.0000;
	7766	5334	0.001419	0.010219	0	0	0	0	0	0	1	-360	360	-3.1619	-4.8338	3.1623	4.8368	0.0000	0.0000	0.0000	0.0000;
	839	3918	0.00013	0.00212	0	756	0	0	0	0	1	-360	360	219.5061	38.2257	-219.4458	-37.2420	0.0000	0.0000	0.0000	0.0000;
	839	809	0.00026	0.00313	0	1282	0	0	0	0	1	-360	360	-423.6673	-22.3543	424.1047	27.6201	0.0000	0.0000	0.0000	0.0000;
	4506	2286	0.0047	0.0318	0	376	0	0	0	0	1	-360	360	160.9045	26.8653	-159.7809	-19.2630	0.0000	0.0000	0.0000	0.0000;
	4506	6802	0.00136	0.00768	0	338	0	0	0	0	1	-360	360	77.7561	28.0185	-77.6726	-27.5472	0.0000	0.0000	0.0000	0.0000;
	4506	3520	0.005669	0.027789	0	300	0	0	0	0	1	-360	360	65.3641	-33.0723	-65.0908	34.4120	0.0000	0.0000	0.0000	0.0000;
	7273	6271	0.004409	0.033091	0	281	0	0	0	0	1	-360	360	-205.3188	9.1754	206.9822	3.3092	0.0000	0.0000	0.0000	0.0000;
	7273	1435	0.01056	0.044469	0	0	0	0	0	0	1	-360	360	0.0018	-4.3178	0.0000	4.3252	0.0000	0.0000	0.0000	0.0000;
	7273	7148	0.01963	0.07736	0	338	0	0	0	0	1	-360	360	-44.2693	-14.1426	44.6480	15.6349	0.0000	0.0000	0.0000	0.0000;
	7273	7437	0.01157	0.04694	0	357	0	0	0	0	1	-360	360	29.9864	-7.0855	-29.8883	7.4835	0.0000	0.0000	0.0000	0.0000;
	6104	871	0.000479	0.00255	0	357	0	0	0	0	1	-360	360	-93.1200	-4.7771	93.1552	4.9646	0.0000	0.0000	0.0000	0.0000;
	7580	871	0.000469	0.00236	0	0	0	0	0	0	1	-360	360	0.0000	0.2013	0.0000	-0.2013	0.0000	0.0000	0.0000	0.0000;
	1188	1539	0.01237	0.067039	0	281	0	0	0	0	1	-360	360	-2.5497	-3.1498	2.5514	3.1590	0.0000	0.0000	0.0000	0.0000;
	1188	8515	0.0132	0.056229	0	281	0	0	0	0	1	-360	360	-28.3803	7.4653	28.4750	-7.0620	0.0000	0.0000	0.0000	0.0000;
	3971	4084	0.00026	0.001711	0	0	0	0	0	0	1	-360	360	-0.0000	0.0000	0.0000	-0.0000	0.0000	0.0000	0.0000	0.0000;
	3971	4084	0.000271	0.001669	0	0	0	0	0	0	1	-360	360	-0.0000	0.0000	0.0000	-0.0000	0.0000	0.0000	0.0000	0.0000;
	6845	5340	0.000211	0.000401	0	0	0	0	0	0	1	-360	360	120.0000	33.9441	-119.9724	-33.8916	0.0000	0.0000	0.0000	0.0000;
	8294	5814	0.00105	0.005159	0	0	0	0	0	0	1	-360	360	-14.2200	-5.8541	14.2221	5.8645	0.0000	0.0000	0.0000	0.0000;
	7115	6807	0.00212	0.00931	0	319	0	0	0	0	1	-360	360	0.0321	-0.0263	-0.0321	0.0263	0.0000	0.0000	0.0000	0.0000;
	619	6791	0.000151	0.00068	0	0	0	0	0	0	1	-360	360	-72.8800	-10.8527	72.8868	10.8835	0.0000	0.0000	0.0000	0.0000;
	5418	4908	0.00019	0.00082	0	0	0	0	0	0	1	-360	360	-0.0000	4.6440	0.0000	-4.6439	0.0000	0.0000	0.0000	0.0000;
	5120	6816	0.003219	0.01405	0	300	0	0	0	0	1	-360	360	0.0278	-0.0000	-0.0278	0.0000	0.0000	0.0000	0.0000	0.0000;
	6692	9158	0.007271	0.033159	0	281	0	0	0	0	1	-360	360	-42.4534	1.4479	42.5686	-0.9227	0.0000	0.0000	0.0000	0.0000;
	6692	8035	0.006659	0.03132	0	300	0	0	0	0	1	-360	360	32.1234	0.5491	-32.0631	-0.2653	0.0000	0.0000	0.0000	0.0000;
	3445	2848	0.00057	0.00668	0	1480	0	0	0	0	1	-360	360	219.1919	8.8187	-218.9254	-5.6949	0.0000	0.0000	0.0000	0.0000;
	3445	7056	0.00057	0.00758	0	1414	0	0	0	0	1	-360	360	-314.8454	-19.3467	315.3966	26.6757	0.0000	0.0000	0.0000	0.0000;
	3445	7056	0.00039	0.00607	0	821	0	0	0	0	1	-360	360	-393.1798	-28.4628	393.7687	37.6290	0.0000	0.0000	0.0000	0.0000;
	3445	1642	0.00155	0.0179	0	0	0	0	0	0	1	-360	360	-438.5773	-63.2545	441.5347	97.4077	0.0000	0.0000	0.0000	0.0000;
	3445	4594	0.00036	0.00485	0	1545	0	0	0	0	1	-360	360	-15.5872	-10.3806	15.5885	10.3971	0.0000	0.0000	0.0000	0.0000;
	6114	1692	0.000581	0.004229	0	338	0	0	0	0	1	-360	360	83.2285	25.7038	-83.1900	-25.4234	0.0000	0.0000	0.0000	0.0000;
	6114	8190	0.00056	0.00431	0	0	0	0	0	0	1	-360	360	0.0000	-0.3662	-0.0000	0.3662	0.0000	0.0000	0.0000	0.0000;
	6114	5836	0.003099	0.020531	0	472	0	0	0	0	1	-360	360	159.0918	14.0275	-158.4010	-9.4510	0.0000	0.0000	0.0000	0.0000;
	6114	3191	0.00118	0.016919	0	510	0	0	0	0	1	-360	360	198.0721	30.6552	-197.6578	-24.7155	0.0000	0.0000	0.0000	0.0000;
	6114	5300	0.00188	0.01407	0	0	0	0	0	0	1	-360	360	90.3897	4.7228	-90.2551	-3.7155	0.0000	0.0000	0.0000	0.0000;
	6114	4889	0.00545	0.04082	0	357	0	0	0	0	1	-360	360	38.1344	19.2886	-38.0474	-18.6372	0.0000	0.0000	0.0000	0.0000;
	7264	444	0.00214	0.01639	0	453	0	0	0	0	1	-360	360	116.9949	27.2608	-116.7225	-25.1744	0.0000	0.0000	0.0000	0.0000;
	7264	4747	0.002479	0.01549	0	0	0	0	0	0	1	-360	360	135.3038	27.7000	-134.8867	-25.0936	0.0000	0.0000	0.0000	0.0000;
	7982	9011	0.000159	0.001229	0	472	0	0	0	0	1	-360	360	-152.2461	-4.1172	152.2791	4.3721	0.0000	0.0000	0.0000	0.0000;
	7982	6675	0.00026	0.00162	0	453	0	0	0	0	1	-360	360	185.8329	18.4905	-185.7518	-17.9852	0.0000	0.0000	0.0000	0.0000;
	7982	6909	0.000159	0.00113	0	376	0	0	0	0	1	-360	360	-21.2224	23.1218	21.2238	-23.1119	0.0000	0.0000	0.0000	0.0000;
	7982	8835	0.000461	0.003219	0	472	0	0	0	0	1	-360	360	-124.3645	-8.9999	124.4286	9.4475	0.0000	0.0000	0.0000	0.0000;
	7982	4186	0.000159	0.001229	0	0	0	0	0	0	1	-360	360	0.0000	-5.6585	-0.0000	5.6588	0.0000	0.0000	0.0000	0.0000;
	1604	502	0.000229	0.00139	0	376	0	0	0	0	1	-360	360	65.9775	6.9691	-65.9689	-6.9169	0.0000	0.0000	0.0000	0.0000;
	2842	502	0.0002	0.00156	0	338	0	0	0	0	1	-360	360	40.0000	7.9410	-39.9972	-7.9188	0.0000	0.0000	0.0000	0.0000;
	1354	513	0.00145	0.00824	0	281	0	0	0	0	1	-360	360	171.5584	32.6054	-171.1805	-30.4580	0.0000	0.0000	0.0000	0.0000;
	1354	502	0.00069	0.005	0	491	0	0	0	0	1	-360	360	-71.5584	5.4746	71.5887	-5.2545	0.0000	0.0000	0.0000	0.0000;
...